SM18
                    3D
 Structure written by MMmdl.
 46 49  0  0  1  0            999 V2000
   -6.7748   -1.4928    1.7359 C   0  0  0  0  0  0
   -5.8267   -1.9872    2.6516 C   0  0  0  0  0  0
   -4.4800   -2.1332    2.2658 C   0  0  0  0  0  0
   -4.0688   -1.7859    0.9622 C   0  0  0  0  0  0
   -5.0296   -1.2884    0.0416 C   0  0  0  0  0  0
   -6.3787   -1.1433    0.4308 C   0  0  0  0  0  0
   -4.5674   -0.9263   -1.3434 C   0  0  0  0  0  0
   -5.3395   -0.4892   -2.1953 O   0  0  0  0  0  0
   -3.2549   -1.1197   -1.5759 N   0  0  0  0  0  0
   -2.3766   -1.6140   -0.6033 C   0  0  0  0  0  0
   -2.7157   -1.9414    0.6072 N   0  0  0  0  0  0
   -0.9559   -1.7294   -1.1241 C   0  0  0  0  0  0
   -0.2792   -0.3574   -1.3213 C   0  0  0  0  0  0
    1.1497   -0.4717   -1.8604 C   0  0  0  0  0  0
    1.4142   -1.3148   -2.7179 O   0  0  0  0  0  0
    2.0403    0.3945   -1.3418 N   0  0  0  0  0  0
    3.4140    0.5442   -1.6672 C   0  0  0  0  0  0
    4.2389    1.4166   -1.0778 N   0  0  0  0  0  0
    5.5421    1.3196   -1.5707 C   0  0  0  0  0  0
    5.6944    0.3793   -2.5611 C   0  0  0  0  0  0
    4.1859   -0.4282   -2.9096 S   0  0  0  0  0  0
    6.9461    0.0290   -3.2960 C   0  0  0  0  0  0
    7.2550    1.0266   -4.3959 C   0  0  0  0  0  0
    8.1457    2.0943   -4.1567 C   0  0  0  0  0  0
    8.4270    3.0229   -5.1776 C   0  0  0  0  0  0
    7.8183    2.8884   -6.4406 C   0  0  0  0  0  0
    6.9275    1.8241   -6.6825 C   0  0  0  0  0  0
    6.6465    0.8949   -5.6619 C   0  0  0  0  0  0
    6.3401    1.6930   -7.8956 F   0  0  0  0  0  0
    8.0900    3.7825   -7.4208 F   0  0  0  0  0  0
   -2.8803   -0.8714   -2.5800 H   0  0  0  0  0  0
   -7.7301   -1.3900    2.0129 H   0  0  0  0  0  0
   -6.1111   -2.2349    3.5777 H   0  0  0  0  0  0
   -3.8084   -2.4850    2.9178 H   0  0  0  0  0  0
   -7.0529   -0.7926   -0.2192 H   0  0  0  0  0  0
   -0.9925   -2.2618   -2.0860 H   0  0  0  0  0  0
   -0.3789   -2.3220   -0.3989 H   0  0  0  0  0  0
   -0.8620    0.2391   -2.0387 H   0  0  0  0  0  0
   -0.2332    0.1706   -0.3575 H   0  0  0  0  0  0
    6.3281    1.8587   -1.2679 H   0  0  0  0  0  0
    6.8193   -0.9721   -3.7340 H   0  0  0  0  0  0
    7.7756    0.0108   -2.5738 H   0  0  0  0  0  0
    8.6139    2.2054   -3.1896 H   0  0  0  0  0  0
    9.1095    3.8390   -4.9914 H   0  0  0  0  0  0
    5.9610    0.0819   -5.8520 H   0  0  0  0  0  0
    1.5832    1.0382   -0.5758 H   0  0  0  0  0  0
  1  6  2  0  0  0
  1 32  1  0  0  0
  1  2  1  0  0  0
  2 33  1  0  0  0
  2  3  2  0  0  0
  3 34  1  0  0  0
  3  4  1  0  0  0
  4  5  2  0  0  0
  4 11  1  0  0  0
  5  7  1  0  0  0
  5  6  1  0  0  0
  6 35  1  0  0  0
  7  8  2  0  0  0
  7  9  1  0  0  0
  9 10  1  0  0  0
  9 31  1  0  0  0
 10 11  2  0  0  0
 10 12  1  0  0  0
 12 13  1  0  0  0
 12 36  1  0  0  0
 12 37  1  0  0  0
 13 38  1  0  0  0
 13 39  1  0  0  0
 13 14  1  0  0  0
 14 16  1  0  0  0
 14 15  2  0  0  0
 16 17  1  0  0  0
 16 46  1  0  0  0
 17 21  1  0  0  0
 17 18  2  0  0  0
 18 19  1  0  0  0
 19 40  1  0  0  0
 19 20  2  0  0  0
 20 22  1  0  0  0
 20 21  1  0  0  0
 22 23  1  0  0  0
 22 41  1  0  0  0
 22 42  1  0  0  0
 23 28  1  0  0  0
 23 24  2  0  0  0
 24 25  1  0  0  0
 24 43  1  0  0  0
 25 26  2  0  0  0
 25 44  1  0  0  0
 26 27  1  0  0  0
 26 30  1  0  0  0
 27 28  2  0  0  0
 27 29  1  0  0  0
 28 45  1  0  0  0
M  END
> <s_m_source_file>
SM18.smi

> <i_m_source_file_index>
1

> <i_lp_mmshare_version>
38013

> <i_f3d_flags>
0

> <s_lp_Force_Field>
OPLS_2005

> <r_lp_Energy>
17.4490160392642

> <b_lp_Chiralities_Consistent>
1

> <s_lp_Variant>
SM18-1

> <r_lp_tautomer_probability>
0.883054493714579

> <r_epik_Ionization_Penalty>
  0.6135

> <r_epik_Ionization_Penalty_Charging>
  0.0000

> <r_epik_Ionization_Penalty_Neutral>
  0.6134

> <r_epik_State_Penalty>
  0.7685

> <r_epik_Charging_Adjusted_Penalty>
0.768521531595508

> <i_epik_Tot_Q>
0

> <i_epik_Tot_abs_Q>
0

$$$$
SM18
                    3D
 Structure written by MMmdl.
 47 50  0  0  1  0            999 V2000
   -6.7748   -1.4928    1.7359 C   0  0  0  0  0  0
   -5.8267   -1.9872    2.6516 C   0  0  0  0  0  0
   -4.4800   -2.1332    2.2658 C   0  0  0  0  0  0
   -4.0688   -1.7859    0.9622 C   0  0  0  0  0  0
   -5.0296   -1.2884    0.0416 C   0  0  0  0  0  0
   -6.3787   -1.1433    0.4308 C   0  0  0  0  0  0
   -4.5674   -0.9263   -1.3434 C   0  0  0  0  0  0
   -5.3395   -0.4892   -2.1953 O   0  0  0  0  0  0
   -3.2549   -1.1197   -1.5759 N   0  0  0  0  0  0
   -2.3766   -1.6140   -0.6033 C   0  0  0  0  0  0
   -2.7157   -1.9414    0.6072 N   0  0  0  0  0  0
   -0.9559   -1.7294   -1.1241 C   0  0  0  0  0  0
   -0.2792   -0.3574   -1.3213 C   0  0  0  0  0  0
    1.1497   -0.4717   -1.8604 C   0  0  0  0  0  0
    1.4142   -1.3148   -2.7179 O   0  0  0  0  0  0
    2.0403    0.3945   -1.3418 N   0  0  0  0  0  0
    3.4140    0.5442   -1.6672 C   0  0  0  0  0  0
    4.2389    1.4166   -1.0778 N   0  3  0  0  0  0
    5.5421    1.3196   -1.5707 C   0  0  0  0  0  0
    5.6944    0.3793   -2.5611 C   0  0  0  0  0  0
    4.1859   -0.4282   -2.9096 S   0  0  0  0  0  0
    6.9461    0.0290   -3.2960 C   0  0  0  0  0  0
    7.2550    1.0266   -4.3959 C   0  0  0  0  0  0
    8.1457    2.0943   -4.1567 C   0  0  0  0  0  0
    8.4270    3.0229   -5.1776 C   0  0  0  0  0  0
    7.8183    2.8884   -6.4406 C   0  0  0  0  0  0
    6.9275    1.8241   -6.6825 C   0  0  0  0  0  0
    6.6465    0.8949   -5.6619 C   0  0  0  0  0  0
    6.3401    1.6930   -7.8956 F   0  0  0  0  0  0
    8.0900    3.7825   -7.4208 F   0  0  0  0  0  0
   -2.8803   -0.8714   -2.5800 H   0  0  0  0  0  0
   -7.7301   -1.3900    2.0129 H   0  0  0  0  0  0
   -6.1111   -2.2349    3.5777 H   0  0  0  0  0  0
   -3.8084   -2.4850    2.9178 H   0  0  0  0  0  0
   -7.0529   -0.7926   -0.2192 H   0  0  0  0  0  0
   -0.9925   -2.2618   -2.0860 H   0  0  0  0  0  0
   -0.3789   -2.3220   -0.3989 H   0  0  0  0  0  0
   -0.8620    0.2391   -2.0387 H   0  0  0  0  0  0
   -0.2332    0.1706   -0.3575 H   0  0  0  0  0  0
    6.3281    1.8587   -1.2679 H   0  0  0  0  0  0
    6.8193   -0.9721   -3.7340 H   0  0  0  0  0  0
    7.7756    0.0108   -2.5738 H   0  0  0  0  0  0
    8.6139    2.2054   -3.1896 H   0  0  0  0  0  0
    9.1095    3.8390   -4.9914 H   0  0  0  0  0  0
    5.9610    0.0819   -5.8520 H   0  0  0  0  0  0
    1.5832    1.0382   -0.5758 H   0  0  0  0  0  0
    4.0001    2.1516   -0.2951 H   0  0  0  0  0  0
  1  6  2  0  0  0
  1 32  1  0  0  0
  1  2  1  0  0  0
  2 33  1  0  0  0
  2  3  2  0  0  0
  3 34  1  0  0  0
  3  4  1  0  0  0
  4  5  2  0  0  0
  4 11  1  0  0  0
  5  7  1  0  0  0
  5  6  1  0  0  0
  6 35  1  0  0  0
  7  8  2  0  0  0
  7  9  1  0  0  0
  9 10  1  0  0  0
  9 31  1  0  0  0
 10 11  2  0  0  0
 10 12  1  0  0  0
 12 13  1  0  0  0
 12 36  1  0  0  0
 12 37  1  0  0  0
 13 38  1  0  0  0
 13 39  1  0  0  0
 13 14  1  0  0  0
 14 16  1  0  0  0
 14 15  2  0  0  0
 16 17  1  0  0  0
 16 46  1  0  0  0
 17 21  1  0  0  0
 17 18  2  0  0  0
 18 19  1  0  0  0
 18 47  1  0  0  0
 19 40  1  0  0  0
 19 20  2  0  0  0
 20 22  1  0  0  0
 20 21  1  0  0  0
 22 23  1  0  0  0
 22 41  1  0  0  0
 22 42  1  0  0  0
 23 28  1  0  0  0
 23 24  2  0  0  0
 24 25  1  0  0  0
 24 43  1  0  0  0
 25 26  2  0  0  0
 25 44  1  0  0  0
 26 27  1  0  0  0
 26 30  1  0  0  0
 27 28  2  0  0  0
 27 29  1  0  0  0
 28 45  1  0  0  0
M  CHG  1  18   1
M  END
> <s_m_source_file>
SM18.smi

> <i_m_source_file_index>
1

> <i_lp_mmshare_version>
38013

> <i_f3d_flags>
0

> <s_lp_Force_Field>
OPLS_2005

> <r_lp_Energy>
17.4490160392642

> <b_lp_Chiralities_Consistent>
1

> <s_lp_Variant>
SM18-1

> <r_lp_tautomer_probability>
0.883938

> <r_epik_Ionization_Penalty>
  0.4287

> <r_epik_Ionization_Penalty_Charging>
  0.3034

> <r_epik_Ionization_Penalty_Neutral>
  0.1252

> <r_epik_State_Penalty>
  0.8091

> <r_epik_Charging_Adjusted_Penalty>
1.11254775157921

> <i_epik_Tot_Q>
1

> <i_epik_Tot_abs_Q>
1

$$$$
SM18
                    3D
 Structure written by MMmdl.
 47 50  0  0  1  0            999 V2000
   -6.7748   -1.4928    1.7359 C   0  0  0  0  0  0
   -5.8267   -1.9872    2.6516 C   0  0  0  0  0  0
   -4.4800   -2.1332    2.2658 C   0  0  0  0  0  0
   -4.0688   -1.7859    0.9622 C   0  0  0  0  0  0
   -5.0296   -1.2884    0.0416 C   0  0  0  0  0  0
   -6.3787   -1.1433    0.4308 C   0  0  0  0  0  0
   -4.5674   -0.9263   -1.3434 C   0  0  0  0  0  0
   -5.3395   -0.4892   -2.1953 O   0  0  0  0  0  0
   -3.2549   -1.1197   -1.5759 N   0  3  0  0  0  0
   -2.3766   -1.6140   -0.6033 C   0  0  0  0  0  0
   -2.7157   -1.9414    0.6072 N   0  0  0  0  0  0
   -0.9559   -1.7294   -1.1241 C   0  0  0  0  0  0
   -0.2792   -0.3574   -1.3213 C   0  0  0  0  0  0
    1.1497   -0.4717   -1.8604 C   0  0  0  0  0  0
    1.4142   -1.3148   -2.7179 O   0  0  0  0  0  0
    2.0403    0.3945   -1.3418 N   0  0  0  0  0  0
    3.4140    0.5442   -1.6672 C   0  0  0  0  0  0
    4.2389    1.4166   -1.0778 N   0  0  0  0  0  0
    5.5421    1.3196   -1.5707 C   0  0  0  0  0  0
    5.6944    0.3793   -2.5611 C   0  0  0  0  0  0
    4.1859   -0.4282   -2.9096 S   0  0  0  0  0  0
    6.9461    0.0290   -3.2960 C   0  0  0  0  0  0
    7.2550    1.0266   -4.3959 C   0  0  0  0  0  0
    8.1457    2.0943   -4.1567 C   0  0  0  0  0  0
    8.4270    3.0229   -5.1776 C   0  0  0  0  0  0
    7.8183    2.8884   -6.4406 C   0  0  0  0  0  0
    6.9275    1.8241   -6.6825 C   0  0  0  0  0  0
    6.6465    0.8949   -5.6619 C   0  0  0  0  0  0
    6.3401    1.6930   -7.8956 F   0  0  0  0  0  0
    8.0900    3.7825   -7.4208 F   0  0  0  0  0  0
   -2.8803   -0.8714   -2.5800 H   0  0  0  0  0  0
   -7.7301   -1.3900    2.0129 H   0  0  0  0  0  0
   -6.1111   -2.2349    3.5777 H   0  0  0  0  0  0
   -3.8084   -2.4850    2.9178 H   0  0  0  0  0  0
   -7.0529   -0.7926   -0.2192 H   0  0  0  0  0  0
   -0.9925   -2.2618   -2.0860 H   0  0  0  0  0  0
   -0.3789   -2.3220   -0.3989 H   0  0  0  0  0  0
   -0.8620    0.2391   -2.0387 H   0  0  0  0  0  0
   -0.2332    0.1706   -0.3575 H   0  0  0  0  0  0
    6.3281    1.8587   -1.2679 H   0  0  0  0  0  0
    6.8193   -0.9721   -3.7340 H   0  0  0  0  0  0
    7.7756    0.0108   -2.5738 H   0  0  0  0  0  0
    8.6139    2.2054   -3.1896 H   0  0  0  0  0  0
    9.1095    3.8390   -4.9914 H   0  0  0  0  0  0
    5.9610    0.0819   -5.8520 H   0  0  0  0  0  0
    1.5832    1.0382   -0.5758 H   0  0  0  0  0  0
   -1.9947   -2.3266    1.3432 H   0  0  0  0  0  0
  1  6  1  0  0  0
  1 32  1  0  0  0
  1  2  2  0  0  0
  2 33  1  0  0  0
  2  3  1  0  0  0
  3 34  1  0  0  0
  3  4  2  0  0  0
  4  5  1  0  0  0
  4 11  1  0  0  0
  5  7  1  0  0  0
  5  6  2  0  0  0
  6 35  1  0  0  0
  7  8  2  0  0  0
  7  9  1  0  0  0
  9 10  2  0  0  0
  9 31  1  0  0  0
 10 11  1  0  0  0
 10 12  1  0  0  0
 11 47  1  0  0  0
 12 13  1  0  0  0
 12 36  1  0  0  0
 12 37  1  0  0  0
 13 38  1  0  0  0
 13 39  1  0  0  0
 13 14  1  0  0  0
 14 16  1  0  0  0
 14 15  2  0  0  0
 16 17  1  0  0  0
 16 46  1  0  0  0
 17 21  1  0  0  0
 17 18  2  0  0  0
 18 19  1  0  0  0
 19 40  1  0  0  0
 19 20  2  0  0  0
 20 22  1  0  0  0
 20 21  1  0  0  0
 22 23  1  0  0  0
 22 41  1  0  0  0
 22 42  1  0  0  0
 23 28  1  0  0  0
 23 24  2  0  0  0
 24 25  1  0  0  0
 24 43  1  0  0  0
 25 26  2  0  0  0
 25 44  1  0  0  0
 26 27  1  0  0  0
 26 30  1  0  0  0
 27 28  2  0  0  0
 27 29  1  0  0  0
 28 45  1  0  0  0
M  CHG  1   9   1
M  END
> <s_m_source_file>
SM18.smi

> <i_m_source_file_index>
1

> <i_lp_mmshare_version>
38013

> <i_f3d_flags>
0

> <s_lp_Force_Field>
OPLS_2005

> <r_lp_Energy>
17.4490160392642

> <b_lp_Chiralities_Consistent>
1

> <s_lp_Variant>
SM18-1

> <r_epik_Ionization_Penalty>
  2.2440

> <r_epik_Ionization_Penalty_Charging>
  1.7004

> <r_epik_Ionization_Penalty_Neutral>
  0.5436

> <r_epik_State_Penalty>
  0.9748

> <r_epik_Charging_Adjusted_Penalty>
2.67519610487413

> <i_epik_Tot_Q>
1

> <i_epik_Tot_abs_Q>
1

$$$$
SM18
                    3D
 Structure written by MMmdl.
 48 51  0  0  1  0            999 V2000
   -6.7748   -1.4928    1.7359 C   0  0  0  0  0  0
   -5.8267   -1.9872    2.6516 C   0  0  0  0  0  0
   -4.4800   -2.1332    2.2658 C   0  0  0  0  0  0
   -4.0688   -1.7859    0.9622 C   0  0  0  0  0  0
   -5.0296   -1.2884    0.0416 C   0  0  0  0  0  0
   -6.3787   -1.1433    0.4308 C   0  0  0  0  0  0
   -4.5674   -0.9263   -1.3434 C   0  0  0  0  0  0
   -5.3395   -0.4892   -2.1953 O   0  0  0  0  0  0
   -3.2549   -1.1197   -1.5759 N   0  0  0  0  0  0
   -2.3766   -1.6140   -0.6033 C   0  0  0  0  0  0
   -2.7157   -1.9414    0.6072 N   0  0  0  0  0  0
   -0.9559   -1.7294   -1.1241 C   0  0  0  0  0  0
   -0.2792   -0.3574   -1.3213 C   0  0  0  0  0  0
    1.1497   -0.4717   -1.8604 C   0  0  0  0  0  0
    1.4142   -1.3148   -2.7179 O   0  0  0  0  0  0
    2.0403    0.3945   -1.3418 N   0  0  0  0  0  0
    3.4140    0.5442   -1.6672 C   0  0  0  0  0  0
    4.2389    1.4166   -1.0778 N   0  2  0  0  0  0
    5.5421    1.3196   -1.5707 C   0  0  0  0  0  0
    5.6944    0.3793   -2.5611 C   0  0  0  0  0  0
    4.1859   -0.4282   -2.9096 S   0  0  0  0  0  0
    6.9461    0.0290   -3.2960 C   0  0  0  0  0  0
    7.2550    1.0266   -4.3959 C   0  0  0  0  0  0
    8.1457    2.0943   -4.1567 C   0  0  0  0  0  0
    8.4270    3.0229   -5.1776 C   0  0  0  0  0  0
    7.8183    2.8884   -6.4406 C   0  0  0  0  0  0
    6.9275    1.8241   -6.6825 C   0  0  0  0  0  0
    6.6465    0.8949   -5.6619 C   0  0  0  0  0  0
    6.3401    1.6930   -7.8956 F   0  0  0  0  0  0
    8.0900    3.7825   -7.4208 F   0  0  0  0  0  0
   -2.8803   -0.8714   -2.5800 H   0  0  0  0  0  0
   -7.7301   -1.3900    2.0129 H   0  0  0  0  0  0
   -6.1111   -2.2349    3.5777 H   0  0  0  0  0  0
   -3.8084   -2.4850    2.9178 H   0  0  0  0  0  0
   -7.0529   -0.7926   -0.2192 H   0  0  0  0  0  0
   -0.9925   -2.2618   -2.0860 H   0  0  0  0  0  0
   -0.3789   -2.3220   -0.3989 H   0  0  0  0  0  0
   -0.8620    0.2391   -2.0387 H   0  0  0  0  0  0
   -0.2332    0.1706   -0.3575 H   0  0  0  0  0  0
    6.4067    1.9127   -1.2377 H   0  0  0  0  0  0
    6.8193   -0.9721   -3.7340 H   0  0  0  0  0  0
    7.7756    0.0108   -2.5738 H   0  0  0  0  0  0
    8.6139    2.2054   -3.1896 H   0  0  0  0  0  0
    9.1095    3.8390   -4.9914 H   0  0  0  0  0  0
    5.9610    0.0819   -5.8520 H   0  0  0  0  0  0
    1.5832    1.0382   -0.5758 H   0  0  0  0  0  0
    4.0218    2.0848   -0.3662 H   0  0  0  0  0  0
    3.9588    0.8639   -0.2929 H   0  0  0  0  0  0
  1  6  2  0  0  0
  1 32  1  0  0  0
  1  2  1  0  0  0
  2 33  1  0  0  0
  2  3  2  0  0  0
  3 34  1  0  0  0
  3  4  1  0  0  0
  4  5  2  0  0  0
  4 11  1  0  0  0
  5  7  1  0  0  0
  5  6  1  0  0  0
  6 35  1  0  0  0
  7  8  2  0  0  0
  7  9  1  0  0  0
  9 10  1  0  0  0
  9 31  1  0  0  0
 10 11  2  0  0  0
 10 12  1  0  0  0
 12 13  1  0  0  0
 12 36  1  0  0  0
 12 37  1  0  0  0
 13 38  1  0  0  0
 13 39  1  0  0  0
 13 14  1  0  0  0
 14 16  1  0  0  0
 14 15  2  0  0  0
 16 17  1  0  0  0
 16 46  1  0  0  0
 17 21  1  0  0  0
 17 18  2  0  0  0
 18 19  1  0  0  0
 18 47  1  0  0  0
 18 48  1  0  0  0
 19 40  1  0  0  0
 19 20  2  0  0  0
 20 22  1  0  0  0
 20 21  1  0  0  0
 22 23  1  0  0  0
 22 41  1  0  0  0
 22 42  1  0  0  0
 23 28  1  0  0  0
 23 24  2  0  0  0
 24 25  1  0  0  0
 24 43  1  0  0  0
 25 26  2  0  0  0
 25 44  1  0  0  0
 26 27  1  0  0  0
 26 30  1  0  0  0
 27 28  2  0  0  0
 27 29  1  0  0  0
 28 45  1  0  0  0
M  CHG  1  18   2
M  END
> <s_m_source_file>
SM18.smi

> <i_m_source_file_index>
1

> <i_lp_mmshare_version>
38013

> <i_f3d_flags>
0

> <s_lp_Force_Field>
OPLS_2005

> <r_lp_Energy>
17.4490160392642

> <b_lp_Chiralities_Consistent>
1

> <s_lp_Variant>
SM18-1

> <r_epik_Ionization_Penalty>
 17.4179

> <r_epik_Ionization_Penalty_Charging>
 17.3119

> <r_epik_Ionization_Penalty_Neutral>
  0.1059

> <r_epik_State_Penalty>
  1.1662

> <r_epik_Charging_Adjusted_Penalty>
18.4781364020162

> <i_epik_Tot_Q>
2

> <i_epik_Tot_abs_Q>
2

> <s_epik_Chemistry_Notes>
This compound has an imine and may undergo hydrolysis.

$$$$
SM18
                    3D
 Structure written by MMmdl.
 46 49  0  0  1  0            999 V2000
   -6.7748   -1.4928    1.7359 C   0  0  0  0  0  0
   -5.8267   -1.9872    2.6516 C   0  0  0  0  0  0
   -4.4800   -2.1332    2.2658 C   0  0  0  0  0  0
   -4.0688   -1.7859    0.9622 C   0  0  0  0  0  0
   -5.0296   -1.2884    0.0416 C   0  0  0  0  0  0
   -6.3787   -1.1433    0.4308 C   0  0  0  0  0  0
   -4.5674   -0.9263   -1.3434 C   0  0  0  0  0  0
   -5.3395   -0.4892   -2.1953 O   0  0  0  0  0  0
   -3.2549   -1.1197   -1.5759 N   0  0  0  0  0  0
   -2.3766   -1.6140   -0.6033 C   0  0  0  0  0  0
   -2.7157   -1.9414    0.6072 N   0  0  0  0  0  0
   -0.9559   -1.7294   -1.1241 C   0  0  0  0  0  0
   -0.2792   -0.3574   -1.3213 C   0  0  0  0  0  0
    1.1497   -0.4717   -1.8604 C   0  0  0  0  0  0
    1.4142   -1.3148   -2.7179 O   0  0  0  0  0  0
    2.0403    0.3945   -1.3418 N   0  0  0  0  0  0
    3.4140    0.5442   -1.6672 C   0  0  0  0  0  0
    4.2389    1.4166   -1.0778 N   0  0  0  0  0  0
    5.5421    1.3196   -1.5707 C   0  0  0  0  0  0
    5.6944    0.3793   -2.5611 C   0  0  0  0  0  0
    4.1859   -0.4282   -2.9096 S   0  0  0  0  0  0
    6.9461    0.0290   -3.2960 C   0  0  0  0  0  0
    7.2550    1.0266   -4.3959 C   0  0  0  0  0  0
    8.1457    2.0943   -4.1567 C   0  0  0  0  0  0
    8.4270    3.0229   -5.1776 C   0  0  0  0  0  0
    7.8183    2.8884   -6.4406 C   0  0  0  0  0  0
    6.9275    1.8241   -6.6825 C   0  0  0  0  0  0
    6.6465    0.8949   -5.6619 C   0  0  0  0  0  0
    6.3401    1.6930   -7.8956 F   0  0  0  0  0  0
    8.0900    3.7825   -7.4208 F   0  0  0  0  0  0
   -1.9947   -2.3266    1.3432 H   0  0  0  0  0  0
   -7.7301   -1.3900    2.0129 H   0  0  0  0  0  0
   -6.1112   -2.2351    3.5776 H   0  0  0  0  0  0
   -3.8083   -2.4846    2.9179 H   0  0  0  0  0  0
   -7.0529   -0.7926   -0.2192 H   0  0  0  0  0  0
   -0.9925   -2.2618   -2.0860 H   0  0  0  0  0  0
   -0.3789   -2.3220   -0.3989 H   0  0  0  0  0  0
   -0.8620    0.2391   -2.0387 H   0  0  0  0  0  0
   -0.2332    0.1706   -0.3575 H   0  0  0  0  0  0
    6.3281    1.8587   -1.2679 H   0  0  0  0  0  0
    6.8193   -0.9721   -3.7340 H   0  0  0  0  0  0
    7.7756    0.0108   -2.5738 H   0  0  0  0  0  0
    8.6139    2.2054   -3.1896 H   0  0  0  0  0  0
    9.1095    3.8390   -4.9914 H   0  0  0  0  0  0
    5.9610    0.0819   -5.8520 H   0  0  0  0  0  0
    1.5832    1.0382   -0.5758 H   0  0  0  0  0  0
  1  6  2  0  0  0
  1 32  1  0  0  0
  1  2  1  0  0  0
  2 33  1  0  0  0
  2  3  2  0  0  0
  3 34  1  0  0  0
  3  4  1  0  0  0
  4  5  2  0  0  0
  4 11  1  0  0  0
  5  7  1  0  0  0
  5  6  1  0  0  0
  6 35  1  0  0  0
  7  8  2  0  0  0
  7  9  1  0  0  0
  9 10  2  0  0  0
 10 11  1  0  0  0
 10 12  1  0  0  0
 11 31  1  0  0  0
 12 13  1  0  0  0
 12 36  1  0  0  0
 12 37  1  0  0  0
 13 38  1  0  0  0
 13 39  1  0  0  0
 13 14  1  0  0  0
 14 16  1  0  0  0
 14 15  2  0  0  0
 16 17  1  0  0  0
 16 46  1  0  0  0
 17 21  1  0  0  0
 17 18  2  0  0  0
 18 19  1  0  0  0
 19 40  1  0  0  0
 19 20  2  0  0  0
 20 22  1  0  0  0
 20 21  1  0  0  0
 22 23  1  0  0  0
 22 41  1  0  0  0
 22 42  1  0  0  0
 23 28  1  0  0  0
 23 24  2  0  0  0
 24 25  1  0  0  0
 24 43  1  0  0  0
 25 26  2  0  0  0
 25 44  1  0  0  0
 26 27  1  0  0  0
 26 30  1  0  0  0
 27 28  2  0  0  0
 27 29  1  0  0  0
 28 45  1  0  0  0
M  END
> <s_m_source_file>
SM18.smi

> <i_m_source_file_index>
1

> <i_lp_mmshare_version>
38013

> <i_f3d_flags>
0

> <s_lp_Force_Field>
OPLS_2005

> <r_lp_Energy>
17.4490160392642

> <b_lp_Chiralities_Consistent>
1

> <s_lp_Variant>
SM18-1

> <r_lp_tautomer_probability>
0.115935005679211

> <r_epik_Ionization_Penalty>
  0.9659

> <r_epik_Ionization_Penalty_Charging>
  0.0000

> <r_epik_Ionization_Penalty_Neutral>
  0.9659

> <r_epik_State_Penalty>
  1.6005

> <r_epik_Charging_Adjusted_Penalty>
1.60050719201014

> <i_epik_Tot_Q>
0

> <i_epik_Tot_abs_Q>
0

$$$$
SM18
                    3D
 Structure written by MMmdl.
 47 50  0  0  1  0            999 V2000
   -6.7748   -1.4928    1.7359 C   0  0  0  0  0  0
   -5.8267   -1.9872    2.6516 C   0  0  0  0  0  0
   -4.4800   -2.1332    2.2658 C   0  0  0  0  0  0
   -4.0688   -1.7859    0.9622 C   0  0  0  0  0  0
   -5.0296   -1.2884    0.0416 C   0  0  0  0  0  0
   -6.3787   -1.1433    0.4308 C   0  0  0  0  0  0
   -4.5674   -0.9263   -1.3434 C   0  0  0  0  0  0
   -5.3395   -0.4892   -2.1953 O   0  0  0  0  0  0
   -3.2549   -1.1197   -1.5759 N   0  0  0  0  0  0
   -2.3766   -1.6140   -0.6033 C   0  0  0  0  0  0
   -2.7157   -1.9414    0.6072 N   0  0  0  0  0  0
   -0.9559   -1.7294   -1.1241 C   0  0  0  0  0  0
   -0.2792   -0.3574   -1.3213 C   0  0  0  0  0  0
    1.1497   -0.4717   -1.8604 C   0  0  0  0  0  0
    1.4142   -1.3148   -2.7179 O   0  0  0  0  0  0
    2.0403    0.3945   -1.3418 N   0  0  0  0  0  0
    3.4140    0.5442   -1.6672 C   0  0  0  0  0  0
    4.2389    1.4166   -1.0778 N   0  3  0  0  0  0
    5.5421    1.3196   -1.5707 C   0  0  0  0  0  0
    5.6944    0.3793   -2.5611 C   0  0  0  0  0  0
    4.1859   -0.4282   -2.9096 S   0  0  0  0  0  0
    6.9461    0.0290   -3.2960 C   0  0  0  0  0  0
    7.2550    1.0266   -4.3959 C   0  0  0  0  0  0
    8.1457    2.0943   -4.1567 C   0  0  0  0  0  0
    8.4270    3.0229   -5.1776 C   0  0  0  0  0  0
    7.8183    2.8884   -6.4406 C   0  0  0  0  0  0
    6.9275    1.8241   -6.6825 C   0  0  0  0  0  0
    6.6465    0.8949   -5.6619 C   0  0  0  0  0  0
    6.3401    1.6930   -7.8956 F   0  0  0  0  0  0
    8.0900    3.7825   -7.4208 F   0  0  0  0  0  0
   -1.9947   -2.3266    1.3432 H   0  0  0  0  0  0
   -7.7301   -1.3900    2.0129 H   0  0  0  0  0  0
   -6.1112   -2.2351    3.5776 H   0  0  0  0  0  0
   -3.8083   -2.4846    2.9179 H   0  0  0  0  0  0
   -7.0529   -0.7926   -0.2192 H   0  0  0  0  0  0
   -0.9925   -2.2618   -2.0860 H   0  0  0  0  0  0
   -0.3789   -2.3220   -0.3989 H   0  0  0  0  0  0
   -0.8620    0.2391   -2.0387 H   0  0  0  0  0  0
   -0.2332    0.1706   -0.3575 H   0  0  0  0  0  0
    6.3281    1.8587   -1.2679 H   0  0  0  0  0  0
    6.8193   -0.9721   -3.7340 H   0  0  0  0  0  0
    7.7756    0.0108   -2.5738 H   0  0  0  0  0  0
    8.6139    2.2054   -3.1896 H   0  0  0  0  0  0
    9.1095    3.8390   -4.9914 H   0  0  0  0  0  0
    5.9610    0.0819   -5.8520 H   0  0  0  0  0  0
    1.5832    1.0382   -0.5758 H   0  0  0  0  0  0
    4.0001    2.1516   -0.2951 H   0  0  0  0  0  0
  1  6  2  0  0  0
  1 32  1  0  0  0
  1  2  1  0  0  0
  2 33  1  0  0  0
  2  3  2  0  0  0
  3 34  1  0  0  0
  3  4  1  0  0  0
  4  5  2  0  0  0
  4 11  1  0  0  0
  5  7  1  0  0  0
  5  6  1  0  0  0
  6 35  1  0  0  0
  7  8  2  0  0  0
  7  9  1  0  0  0
  9 10  2  0  0  0
 10 11  1  0  0  0
 10 12  1  0  0  0
 11 31  1  0  0  0
 12 13  1  0  0  0
 12 36  1  0  0  0
 12 37  1  0  0  0
 13 38  1  0  0  0
 13 39  1  0  0  0
 13 14  1  0  0  0
 14 16  1  0  0  0
 14 15  2  0  0  0
 16 17  1  0  0  0
 16 46  1  0  0  0
 17 21  1  0  0  0
 17 18  2  0  0  0
 18 19  1  0  0  0
 18 47  1  0  0  0
 19 40  1  0  0  0
 19 20  2  0  0  0
 20 22  1  0  0  0
 20 21  1  0  0  0
 22 23  1  0  0  0
 22 41  1  0  0  0
 22 42  1  0  0  0
 23 28  1  0  0  0
 23 24  2  0  0  0
 24 25  1  0  0  0
 24 43  1  0  0  0
 25 26  2  0  0  0
 25 44  1  0  0  0
 26 27  1  0  0  0
 26 30  1  0  0  0
 27 28  2  0  0  0
 27 29  1  0  0  0
 28 45  1  0  0  0
M  CHG  1  18   1
M  END
> <s_m_source_file>
SM18.smi

> <i_m_source_file_index>
1

> <i_lp_mmshare_version>
38013

> <i_f3d_flags>
0

> <s_lp_Force_Field>
OPLS_2005

> <r_lp_Energy>
17.4490160392642

> <b_lp_Chiralities_Consistent>
1

> <s_lp_Variant>
SM18-1

> <r_lp_tautomer_probability>
0.116051

> <r_epik_Ionization_Penalty>
  0.7675

> <r_epik_Ionization_Penalty_Charging>
  0.3034

> <r_epik_Ionization_Penalty_Neutral>
  0.4641

> <r_epik_State_Penalty>
  1.8467

> <r_epik_Charging_Adjusted_Penalty>
2.15014365084831

> <i_epik_Tot_Q>
1

> <i_epik_Tot_abs_Q>
1

$$$$
SM18
                    3D
 Structure written by MMmdl.
 48 51  0  0  1  0            999 V2000
   -6.7748   -1.4928    1.7359 C   0  0  0  0  0  0
   -5.8267   -1.9872    2.6516 C   0  0  0  0  0  0
   -4.4800   -2.1332    2.2658 C   0  0  0  0  0  0
   -4.0688   -1.7859    0.9622 C   0  0  0  0  0  0
   -5.0296   -1.2884    0.0416 C   0  0  0  0  0  0
   -6.3787   -1.1433    0.4308 C   0  0  0  0  0  0
   -4.5674   -0.9263   -1.3434 C   0  0  0  0  0  0
   -5.3395   -0.4892   -2.1953 O   0  0  0  0  0  0
   -3.2549   -1.1197   -1.5759 N   0  0  0  0  0  0
   -2.3766   -1.6140   -0.6033 C   0  0  0  0  0  0
   -2.7157   -1.9414    0.6072 N   0  0  0  0  0  0
   -0.9559   -1.7294   -1.1241 C   0  0  0  0  0  0
   -0.2792   -0.3574   -1.3213 C   0  0  0  0  0  0
    1.1497   -0.4717   -1.8604 C   0  0  0  0  0  0
    1.4142   -1.3148   -2.7179 O   0  0  0  0  0  0
    2.0403    0.3945   -1.3418 N   0  0  0  0  0  0
    3.4140    0.5442   -1.6672 C   0  0  0  0  0  0
    4.2389    1.4166   -1.0778 N   0  2  0  0  0  0
    5.5421    1.3196   -1.5707 C   0  0  0  0  0  0
    5.6944    0.3793   -2.5611 C   0  0  0  0  0  0
    4.1859   -0.4282   -2.9096 S   0  0  0  0  0  0
    6.9461    0.0290   -3.2960 C   0  0  0  0  0  0
    7.2550    1.0266   -4.3959 C   0  0  0  0  0  0
    8.1457    2.0943   -4.1567 C   0  0  0  0  0  0
    8.4270    3.0229   -5.1776 C   0  0  0  0  0  0
    7.8183    2.8884   -6.4406 C   0  0  0  0  0  0
    6.9275    1.8241   -6.6825 C   0  0  0  0  0  0
    6.6465    0.8949   -5.6619 C   0  0  0  0  0  0
    6.3401    1.6930   -7.8956 F   0  0  0  0  0  0
    8.0900    3.7825   -7.4208 F   0  0  0  0  0  0
   -1.9947   -2.3266    1.3432 H   0  0  0  0  0  0
   -7.7301   -1.3900    2.0129 H   0  0  0  0  0  0
   -6.1112   -2.2351    3.5776 H   0  0  0  0  0  0
   -3.8083   -2.4846    2.9179 H   0  0  0  0  0  0
   -7.0529   -0.7926   -0.2192 H   0  0  0  0  0  0
   -0.9925   -2.2618   -2.0860 H   0  0  0  0  0  0
   -0.3789   -2.3220   -0.3989 H   0  0  0  0  0  0
   -0.8620    0.2391   -2.0387 H   0  0  0  0  0  0
   -0.2332    0.1706   -0.3575 H   0  0  0  0  0  0
    6.4067    1.9127   -1.2377 H   0  0  0  0  0  0
    6.8193   -0.9721   -3.7340 H   0  0  0  0  0  0
    7.7756    0.0108   -2.5738 H   0  0  0  0  0  0
    8.6139    2.2054   -3.1896 H   0  0  0  0  0  0
    9.1095    3.8390   -4.9914 H   0  0  0  0  0  0
    5.9610    0.0819   -5.8520 H   0  0  0  0  0  0
    1.5832    1.0382   -0.5758 H   0  0  0  0  0  0
    4.0218    2.0848   -0.3662 H   0  0  0  0  0  0
    3.9588    0.8639   -0.2929 H   0  0  0  0  0  0
  1  6  2  0  0  0
  1 32  1  0  0  0
  1  2  1  0  0  0
  2 33  1  0  0  0
  2  3  2  0  0  0
  3 34  1  0  0  0
  3  4  1  0  0  0
  4  5  2  0  0  0
  4 11  1  0  0  0
  5  7  1  0  0  0
  5  6  1  0  0  0
  6 35  1  0  0  0
  7  8  2  0  0  0
  7  9  1  0  0  0
  9 10  2  0  0  0
 10 11  1  0  0  0
 10 12  1  0  0  0
 11 31  1  0  0  0
 12 13  1  0  0  0
 12 36  1  0  0  0
 12 37  1  0  0  0
 13 38  1  0  0  0
 13 39  1  0  0  0
 13 14  1  0  0  0
 14 16  1  0  0  0
 14 15  2  0  0  0
 16 17  1  0  0  0
 16 46  1  0  0  0
 17 21  1  0  0  0
 17 18  2  0  0  0
 18 19  1  0  0  0
 18 47  1  0  0  0
 18 48  1  0  0  0
 19 40  1  0  0  0
 19 20  2  0  0  0
 20 22  1  0  0  0
 20 21  1  0  0  0
 22 23  1  0  0  0
 22 41  1  0  0  0
 22 42  1  0  0  0
 23 28  1  0  0  0
 23 24  2  0  0  0
 24 25  1  0  0  0
 24 43  1  0  0  0
 25 26  2  0  0  0
 25 44  1  0  0  0
 26 27  1  0  0  0
 26 30  1  0  0  0
 27 28  2  0  0  0
 27 29  1  0  0  0
 28 45  1  0  0  0
M  CHG  1  18   2
M  END
> <s_m_source_file>
SM18.smi

> <i_m_source_file_index>
1

> <i_lp_mmshare_version>
38013

> <i_f3d_flags>
0

> <s_lp_Force_Field>
OPLS_2005

> <r_lp_Energy>
17.4490160392642

> <b_lp_Chiralities_Consistent>
1

> <s_lp_Variant>
SM18-1

> <r_epik_Ionization_Penalty>
 17.8482

> <r_epik_Ionization_Penalty_Charging>
 17.3119

> <r_epik_Ionization_Penalty_Neutral>
  0.5363

> <r_epik_State_Penalty>
  2.5789

> <r_epik_Charging_Adjusted_Penalty>
19.8908581717899

> <i_epik_Tot_Q>
2

> <i_epik_Tot_abs_Q>
2

> <s_epik_Chemistry_Notes>
This compound has an imine and may undergo hydrolysis.

$$$$
SM18
                    3D
 Structure written by MMmdl.
 48 51  0  0  1  0            999 V2000
   -6.7748   -1.4928    1.7359 C   0  0  0  0  0  0
   -5.8267   -1.9872    2.6516 C   0  0  0  0  0  0
   -4.4800   -2.1332    2.2658 C   0  0  0  0  0  0
   -4.0688   -1.7859    0.9622 C   0  0  0  0  0  0
   -5.0296   -1.2884    0.0416 C   0  0  0  0  0  0
   -6.3787   -1.1433    0.4308 C   0  0  0  0  0  0
   -4.5674   -0.9263   -1.3434 C   0  0  0  0  0  0
   -5.3395   -0.4892   -2.1953 O   0  0  0  0  0  0
   -3.2549   -1.1197   -1.5759 N   0  3  0  0  0  0
   -2.3766   -1.6140   -0.6033 C   0  0  0  0  0  0
   -2.7157   -1.9414    0.6072 N   0  0  0  0  0  0
   -0.9559   -1.7294   -1.1241 C   0  0  0  0  0  0
   -0.2792   -0.3574   -1.3213 C   0  0  0  0  0  0
    1.1497   -0.4717   -1.8604 C   0  0  0  0  0  0
    1.4142   -1.3148   -2.7179 O   0  0  0  0  0  0
    2.0403    0.3945   -1.3418 N   0  0  0  0  0  0
    3.4140    0.5442   -1.6672 C   0  0  0  0  0  0
    4.2389    1.4166   -1.0778 N   0  3  0  0  0  0
    5.5421    1.3196   -1.5707 C   0  0  0  0  0  0
    5.6944    0.3793   -2.5611 C   0  0  0  0  0  0
    4.1859   -0.4282   -2.9096 S   0  0  0  0  0  0
    6.9461    0.0290   -3.2960 C   0  0  0  0  0  0
    7.2550    1.0266   -4.3959 C   0  0  0  0  0  0
    8.1457    2.0943   -4.1567 C   0  0  0  0  0  0
    8.4270    3.0229   -5.1776 C   0  0  0  0  0  0
    7.8183    2.8884   -6.4406 C   0  0  0  0  0  0
    6.9275    1.8241   -6.6825 C   0  0  0  0  0  0
    6.6465    0.8949   -5.6619 C   0  0  0  0  0  0
    6.3401    1.6930   -7.8956 F   0  0  0  0  0  0
    8.0900    3.7825   -7.4208 F   0  0  0  0  0  0
   -2.8803   -0.8714   -2.5800 H   0  0  0  0  0  0
   -7.7301   -1.3900    2.0129 H   0  0  0  0  0  0
   -6.1111   -2.2349    3.5777 H   0  0  0  0  0  0
   -3.8084   -2.4850    2.9178 H   0  0  0  0  0  0
   -7.0529   -0.7926   -0.2192 H   0  0  0  0  0  0
   -0.9925   -2.2618   -2.0860 H   0  0  0  0  0  0
   -0.3789   -2.3220   -0.3989 H   0  0  0  0  0  0
   -0.8620    0.2391   -2.0387 H   0  0  0  0  0  0
   -0.2332    0.1706   -0.3575 H   0  0  0  0  0  0
    6.3281    1.8587   -1.2679 H   0  0  0  0  0  0
    6.8193   -0.9721   -3.7340 H   0  0  0  0  0  0
    7.7756    0.0108   -2.5738 H   0  0  0  0  0  0
    8.6139    2.2054   -3.1896 H   0  0  0  0  0  0
    9.1095    3.8390   -4.9914 H   0  0  0  0  0  0
    5.9610    0.0819   -5.8520 H   0  0  0  0  0  0
    1.5832    1.0382   -0.5758 H   0  0  0  0  0  0
    4.0001    2.1516   -0.2951 H   0  0  0  0  0  0
   -1.9947   -2.3266    1.3432 H   0  0  0  0  0  0
  1  6  1  0  0  0
  1 32  1  0  0  0
  1  2  2  0  0  0
  2 33  1  0  0  0
  2  3  1  0  0  0
  3 34  1  0  0  0
  3  4  2  0  0  0
  4  5  1  0  0  0
  4 11  1  0  0  0
  5  7  1  0  0  0
  5  6  2  0  0  0
  6 35  1  0  0  0
  7  8  2  0  0  0
  7  9  1  0  0  0
  9 10  2  0  0  0
  9 31  1  0  0  0
 10 11  1  0  0  0
 10 12  1  0  0  0
 11 48  1  0  0  0
 12 13  1  0  0  0
 12 36  1  0  0  0
 12 37  1  0  0  0
 13 38  1  0  0  0
 13 39  1  0  0  0
 13 14  1  0  0  0
 14 16  1  0  0  0
 14 15  2  0  0  0
 16 17  1  0  0  0
 16 46  1  0  0  0
 17 21  1  0  0  0
 17 18  2  0  0  0
 18 19  1  0  0  0
 18 47  1  0  0  0
 19 40  1  0  0  0
 19 20  2  0  0  0
 20 22  1  0  0  0
 20 21  1  0  0  0
 22 23  1  0  0  0
 22 41  1  0  0  0
 22 42  1  0  0  0
 23 28  1  0  0  0
 23 24  2  0  0  0
 24 25  1  0  0  0
 24 43  1  0  0  0
 25 26  2  0  0  0
 25 44  1  0  0  0
 26 27  1  0  0  0
 26 30  1  0  0  0
 27 28  2  0  0  0
 27 29  1  0  0  0
 28 45  1  0  0  0
M  CHG  2   9   1  18   1
M  END
> <s_m_source_file>
SM18.smi

> <i_m_source_file_index>
1

> <i_lp_mmshare_version>
38013

> <i_f3d_flags>
0

> <s_lp_Force_Field>
OPLS_2005

> <r_lp_Energy>
17.4490160392642

> <b_lp_Chiralities_Consistent>
1

> <s_lp_Variant>
SM18-1

> <r_epik_Ionization_Penalty>
  2.1092

> <r_epik_Ionization_Penalty_Charging>
  2.0503

> <r_epik_Ionization_Penalty_Neutral>
  0.0589

> <r_epik_State_Penalty>
  2.6101

> <r_epik_Charging_Adjusted_Penalty>
4.66032411060733

> <i_epik_Tot_Q>
2

> <i_epik_Tot_abs_Q>
2

$$$$
SM18
                    3D
 Structure written by MMmdl.
 48 51  0  0  1  0            999 V2000
   -6.7748   -1.4928    1.7359 C   0  0  0  0  0  0
   -5.8267   -1.9872    2.6516 C   0  0  0  0  0  0
   -4.4800   -2.1332    2.2658 C   0  0  0  0  0  0
   -4.0688   -1.7859    0.9622 C   0  0  0  0  0  0
   -5.0296   -1.2884    0.0416 C   0  0  0  0  0  0
   -6.3787   -1.1433    0.4308 C   0  0  0  0  0  0
   -4.5674   -0.9263   -1.3434 C   0  0  0  0  0  0
   -5.3395   -0.4892   -2.1953 O   0  0  0  0  0  0
   -3.2549   -1.1197   -1.5759 N   0  0  0  0  0  0
   -2.3766   -1.6140   -0.6033 C   0  0  0  0  0  0
   -2.7157   -1.9414    0.6072 N   0  0  0  0  0  0
   -0.9559   -1.7294   -1.1241 C   0  0  0  0  0  0
   -0.2792   -0.3574   -1.3213 C   0  0  0  0  0  0
    1.1497   -0.4717   -1.8604 C   0  0  0  0  0  0
    1.4142   -1.3148   -2.7179 O   0  3  0  0  0  0
    2.0403    0.3945   -1.3418 N   0  0  0  0  0  0
    3.4140    0.5442   -1.6672 C   0  0  0  0  0  0
    4.2389    1.4166   -1.0778 N   0  3  0  0  0  0
    5.5421    1.3196   -1.5707 C   0  0  0  0  0  0
    5.6944    0.3793   -2.5611 C   0  0  0  0  0  0
    4.1859   -0.4282   -2.9096 S   0  0  0  0  0  0
    6.9461    0.0290   -3.2960 C   0  0  0  0  0  0
    7.2550    1.0266   -4.3959 C   0  0  0  0  0  0
    8.1457    2.0943   -4.1567 C   0  0  0  0  0  0
    8.4270    3.0229   -5.1776 C   0  0  0  0  0  0
    7.8183    2.8884   -6.4406 C   0  0  0  0  0  0
    6.9275    1.8241   -6.6825 C   0  0  0  0  0  0
    6.6465    0.8949   -5.6619 C   0  0  0  0  0  0
    6.3401    1.6930   -7.8956 F   0  0  0  0  0  0
    8.0900    3.7825   -7.4208 F   0  0  0  0  0  0
   -2.8803   -0.8714   -2.5800 H   0  0  0  0  0  0
   -7.7301   -1.3900    2.0129 H   0  0  0  0  0  0
   -6.1111   -2.2349    3.5777 H   0  0  0  0  0  0
   -3.8084   -2.4850    2.9178 H   0  0  0  0  0  0
   -7.0529   -0.7926   -0.2192 H   0  0  0  0  0  0
   -0.9925   -2.2618   -2.0860 H   0  0  0  0  0  0
   -0.3789   -2.3220   -0.3989 H   0  0  0  0  0  0
   -0.8620    0.2391   -2.0387 H   0  0  0  0  0  0
   -0.2332    0.1706   -0.3575 H   0  0  0  0  0  0
    6.3281    1.8587   -1.2679 H   0  0  0  0  0  0
    6.8193   -0.9721   -3.7340 H   0  0  0  0  0  0
    7.7756    0.0108   -2.5738 H   0  0  0  0  0  0
    8.6139    2.2054   -3.1896 H   0  0  0  0  0  0
    9.1095    3.8390   -4.9914 H   0  0  0  0  0  0
    5.9610    0.0819   -5.8520 H   0  0  0  0  0  0
    1.5832    1.0382   -0.5758 H   0  0  0  0  0  0
    4.0001    2.1516   -0.2951 H   0  0  0  0  0  0
    0.6254   -1.9828   -3.0942 H   0  0  0  0  0  0
  1  6  2  0  0  0
  1 32  1  0  0  0
  1  2  1  0  0  0
  2 33  1  0  0  0
  2  3  2  0  0  0
  3 34  1  0  0  0
  3  4  1  0  0  0
  4  5  2  0  0  0
  4 11  1  0  0  0
  5  7  1  0  0  0
  5  6  1  0  0  0
  6 35  1  0  0  0
  7  8  2  0  0  0
  7  9  1  0  0  0
  9 10  1  0  0  0
  9 31  1  0  0  0
 10 11  2  0  0  0
 10 12  1  0  0  0
 12 13  1  0  0  0
 12 36  1  0  0  0
 12 37  1  0  0  0
 13 38  1  0  0  0
 13 39  1  0  0  0
 13 14  1  0  0  0
 14 16  1  0  0  0
 14 15  2  0  0  0
 15 48  1  0  0  0
 16 17  1  0  0  0
 16 46  1  0  0  0
 17 21  1  0  0  0
 17 18  2  0  0  0
 18 19  1  0  0  0
 18 47  1  0  0  0
 19 40  1  0  0  0
 19 20  2  0  0  0
 20 22  1  0  0  0
 20 21  1  0  0  0
 22 23  1  0  0  0
 22 41  1  0  0  0
 22 42  1  0  0  0
 23 28  1  0  0  0
 23 24  2  0  0  0
 24 25  1  0  0  0
 24 43  1  0  0  0
 25 26  2  0  0  0
 25 44  1  0  0  0
 26 27  1  0  0  0
 26 30  1  0  0  0
 27 28  2  0  0  0
 27 29  1  0  0  0
 28 45  1  0  0  0
M  CHG  2  15   1  18   1
M  END
> <s_m_source_file>
SM18.smi

> <i_m_source_file_index>
1

> <i_lp_mmshare_version>
38013

> <i_f3d_flags>
0

> <s_lp_Force_Field>
OPLS_2005

> <r_lp_Energy>
17.4490160392642

> <b_lp_Chiralities_Consistent>
1

> <s_lp_Variant>
SM18-1

> <r_epik_Ionization_Penalty>
  5.3406

> <r_epik_Ionization_Penalty_Charging>
  4.3521

> <r_epik_Ionization_Penalty_Neutral>
  0.9885

> <r_epik_State_Penalty>
  4.3866

> <r_epik_Charging_Adjusted_Penalty>
8.73865505939786

> <i_epik_Tot_Q>
2

> <i_epik_Tot_abs_Q>
2

$$$$
SM18
                    3D
 Structure written by MMmdl.
 46 49  0  0  1  0            999 V2000
   -6.8393   -1.3580    1.6101 C   0  0  0  0  0  0
   -5.9073   -1.8577    2.5393 C   0  0  0  0  0  0
   -4.5577   -2.0194    2.1703 C   0  0  0  0  0  0
   -4.1274   -1.6827    0.8702 C   0  0  0  0  0  0
   -5.0720   -1.1798   -0.0641 C   0  0  0  0  0  0
   -6.4241   -1.0189    0.3082 C   0  0  0  0  0  0
   -4.5897   -0.8292   -1.4453 C   0  0  0  0  0  0
   -5.3470   -0.3882   -2.3084 O   0  0  0  0  0  0
   -3.2765   -1.0371   -1.6612 N   0  0  0  0  0  0
   -2.4151   -1.5358   -0.6758 C   0  0  0  0  0  0
   -2.7719   -1.8538    0.5321 N   0  0  0  0  0  0
   -0.9895   -1.6683   -1.1791 C   0  0  0  0  0  0
   -0.2964   -0.3043   -1.3746 C   0  0  0  0  0  0
    1.1376   -0.4359   -1.8960 C   0  0  0  0  0  0
    1.4036   -1.2858   -2.7463 O   0  0  0  0  0  0
    2.0309    0.4236   -1.3709 N   0  0  0  0  0  0
    3.4099    0.5576   -1.6805 C   0  0  0  0  0  0
    4.2389    1.4166   -1.0778 N   0  0  0  0  0  0
    5.5421    1.3196   -1.5707 C   0  0  0  0  0  0
    5.6944    0.3793   -2.5611 C   0  0  0  0  0  0
    4.1830   -0.4185   -2.9193 S   0  0  0  0  0  0
    6.9461    0.0290   -3.2960 C   0  0  0  0  0  0
    7.2550    1.0266   -4.3959 C   0  0  0  0  0  0
    8.1457    2.0943   -4.1567 C   0  0  0  0  0  0
    8.4270    3.0229   -5.1776 C   0  0  0  0  0  0
    7.8183    2.8884   -6.4406 C   0  0  0  0  0  0
    6.9275    1.8241   -6.6825 C   0  0  0  0  0  0
    6.6465    0.8949   -5.6619 C   0  0  0  0  0  0
    6.3401    1.6930   -7.8956 F   0  0  0  0  0  0
    8.0900    3.7825   -7.4208 F   0  0  0  0  0  0
   -2.8875   -0.7976   -2.6618 H   0  0  0  0  0  0
   -7.7967   -1.2441    1.8752 H   0  0  0  0  0  0
   -6.2053   -2.0980    3.4631 H   0  0  0  0  0  0
   -3.8976   -2.3750    2.8320 H   0  0  0  0  0  0
   -7.0868   -0.6645   -0.3515 H   0  0  0  0  0  0
   -1.0202   -2.2049   -2.1388 H   0  0  0  0  0  0
   -0.4274   -2.2633   -0.4442 H   0  0  0  0  0  0
   -0.8643    0.2947   -2.1016 H   0  0  0  0  0  0
   -0.2563    0.2279   -0.4127 H   0  0  0  0  0  0
    6.3281    1.8587   -1.2679 H   0  0  0  0  0  0
    6.8193   -0.9721   -3.7340 H   0  0  0  0  0  0
    7.7756    0.0108   -2.5738 H   0  0  0  0  0  0
    8.6139    2.2054   -3.1896 H   0  0  0  0  0  0
    9.1095    3.8390   -4.9914 H   0  0  0  0  0  0
    5.9610    0.0819   -5.8520 H   0  0  0  0  0  0
    4.0033    2.1415   -0.2847 H   0  0  0  0  0  0
  1  6  2  0  0  0
  1 32  1  0  0  0
  1  2  1  0  0  0
  2 33  1  0  0  0
  2  3  2  0  0  0
  3 34  1  0  0  0
  3  4  1  0  0  0
  4  5  2  0  0  0
  4 11  1  0  0  0
  5  7  1  0  0  0
  5  6  1  0  0  0
  6 35  1  0  0  0
  7  8  2  0  0  0
  7  9  1  0  0  0
  9 10  1  0  0  0
  9 31  1  0  0  0
 10 11  2  0  0  0
 10 12  1  0  0  0
 12 13  1  0  0  0
 12 36  1  0  0  0
 12 37  1  0  0  0
 13 38  1  0  0  0
 13 39  1  0  0  0
 13 14  1  0  0  0
 14 16  1  0  0  0
 14 15  2  0  0  0
 16 17  2  0  0  0
 17 21  1  0  0  0
 17 18  1  0  0  0
 18 19  1  0  0  0
 18 46  1  0  0  0
 19 40  1  0  0  0
 19 20  2  0  0  0
 20 22  1  0  0  0
 20 21  1  0  0  0
 22 23  1  0  0  0
 22 41  1  0  0  0
 22 42  1  0  0  0
 23 28  1  0  0  0
 23 24  2  0  0  0
 24 25  1  0  0  0
 24 43  1  0  0  0
 25 26  2  0  0  0
 25 44  1  0  0  0
 26 27  1  0  0  0
 26 30  1  0  0  0
 27 28  2  0  0  0
 27 29  1  0  0  0
 28 45  1  0  0  0
M  END
> <s_m_source_file>
SM18.smi

> <i_m_source_file_index>
1

> <i_lp_mmshare_version>
38013

> <i_f3d_flags>
0

> <s_lp_Force_Field>
OPLS_2005

> <r_lp_Energy>
17.4490160392642

> <b_lp_Chiralities_Consistent>
1

> <s_lp_Variant>
SM18-1

> <r_lp_tautomer_probability>
0.000441748120917748

> <r_epik_Ionization_Penalty>
  3.7753

> <r_epik_Ionization_Penalty_Charging>
  1.4490

> <r_epik_Ionization_Penalty_Neutral>
  2.3263

> <r_epik_State_Penalty>
  4.6074

> <r_epik_Charging_Adjusted_Penalty>
6.05640850160635

> <i_epik_Tot_Q>
0

> <i_epik_Tot_abs_Q>
0

$$$$
SM18
                    3D
 Structure written by MMmdl.
 46 49  0  0  1  0            999 V2000
   -7.4271    0.4245   -0.2365 C   0  0  0  0  0  0
   -7.0857    1.0479   -1.4517 C   0  0  0  0  0  0
   -5.7619    1.4694   -1.6830 C   0  0  0  0  0  0
   -4.7676    1.2710   -0.7027 C   0  0  0  0  0  0
   -5.1174    0.6424    0.5223 C   0  0  0  0  0  0
   -6.4451    0.2211    0.7516 C   0  0  0  0  0  0
   -4.0401    0.4433    1.5532 C   0  0  0  0  0  0
   -4.2653   -0.0932    2.6369 O   0  0  0  0  0  0
   -2.8219    0.8972    1.2007 N   0  0  0  0  0  0
   -2.5666    1.5044   -0.0354 C   0  0  0  0  0  0
   -3.4533    1.7016   -0.9641 N   0  0  0  0  0  0
   -1.1132    1.9166   -0.1786 C   0  0  0  0  0  0
   -0.1654    0.7120   -0.3515 C   0  0  0  0  0  0
    1.3034    1.1256   -0.4818 C   0  0  0  0  0  0
    1.7438    2.0442    0.2098 O   0  0  0  0  0  0
    2.0309    0.4236   -1.3709 N   0  0  0  0  0  0
    3.4099    0.5576   -1.6805 C   0  0  0  0  0  0
    4.2389    1.4166   -1.0778 N   0  0  0  0  0  0
    5.5421    1.3196   -1.5707 C   0  0  0  0  0  0
    5.6944    0.3793   -2.5611 C   0  0  0  0  0  0
    4.1830   -0.4185   -2.9193 S   0  0  0  0  0  0
    6.9461    0.0290   -3.2960 C   0  0  0  0  0  0
    7.2550    1.0266   -4.3959 C   0  0  0  0  0  0
    8.1457    2.0943   -4.1567 C   0  0  0  0  0  0
    8.4270    3.0229   -5.1776 C   0  0  0  0  0  0
    7.8183    2.8884   -6.4406 C   0  0  0  0  0  0
    6.9275    1.8241   -6.6825 C   0  0  0  0  0  0
    6.6465    0.8949   -5.6619 C   0  0  0  0  0  0
    6.3401    1.6930   -7.8956 F   0  0  0  0  0  0
    8.0900    3.7825   -7.4208 F   0  0  0  0  0  0
   -2.0089    0.7744    1.9315 H   0  0  0  0  0  0
   -8.3678    0.1261   -0.0754 H   0  0  0  0  0  0
   -7.7856    1.1913   -2.1514 H   0  0  0  0  0  0
   -5.5219    1.9124   -2.5468 H   0  0  0  0  0  0
   -6.6884   -0.2213    1.6148 H   0  0  0  0  0  0
   -0.8321    2.4775    0.7250 H   0  0  0  0  0  0
   -1.0350    2.5738   -1.0572 H   0  0  0  0  0  0
   -0.2513    0.0495    0.5224 H   0  0  0  0  0  0
   -0.4399    0.1571   -1.2607 H   0  0  0  0  0  0
    6.3281    1.8587   -1.2679 H   0  0  0  0  0  0
    6.8193   -0.9721   -3.7340 H   0  0  0  0  0  0
    7.7756    0.0108   -2.5738 H   0  0  0  0  0  0
    8.6139    2.2054   -3.1896 H   0  0  0  0  0  0
    9.1095    3.8390   -4.9914 H   0  0  0  0  0  0
    5.9610    0.0819   -5.8520 H   0  0  0  0  0  0
    4.0033    2.1415   -0.2847 H   0  0  0  0  0  0
  1  6  2  0  0  0
  1 32  1  0  0  0
  1  2  1  0  0  0
  2 33  1  0  0  0
  2  3  2  0  0  0
  3 34  1  0  0  0
  3  4  1  0  0  0
  4  5  2  0  0  0
  4 11  1  0  0  0
  5  7  1  0  0  0
  5  6  1  0  0  0
  6 35  1  0  0  0
  7  8  2  0  0  0
  7  9  1  0  0  0
  9 10  1  0  0  0
  9 31  1  0  0  0
 10 11  2  0  0  0
 10 12  1  0  0  0
 12 13  1  0  0  0
 12 36  1  0  0  0
 12 37  1  0  0  0
 13 38  1  0  0  0
 13 39  1  0  0  0
 13 14  1  0  0  0
 14 16  1  0  0  0
 14 15  2  0  0  0
 16 17  2  0  0  0
 17 21  1  0  0  0
 17 18  1  0  0  0
 18 19  1  0  0  0
 18 46  1  0  0  0
 19 40  1  0  0  0
 19 20  2  0  0  0
 20 22  1  0  0  0
 20 21  1  0  0  0
 22 23  1  0  0  0
 22 41  1  0  0  0
 22 42  1  0  0  0
 23 28  1  0  0  0
 23 24  2  0  0  0
 24 25  1  0  0  0
 24 43  1  0  0  0
 25 26  2  0  0  0
 25 44  1  0  0  0
 26 27  1  0  0  0
 26 30  1  0  0  0
 27 28  2  0  0  0
 27 29  1  0  0  0
 28 45  1  0  0  0
M  END
> <s_m_source_file>
SM18.smi

> <i_m_source_file_index>
1

> <i_lp_mmshare_version>
38013

> <i_f3d_flags>
0

> <s_lp_Force_Field>
OPLS_2005

> <r_lp_Energy>
17.4490160392642

> <b_lp_Chiralities_Consistent>
1

> <s_lp_Variant>
SM18-1

> <r_lp_tautomer_probability>
0.000441748120917748

> <r_epik_Ionization_Penalty>
  3.7753

> <r_epik_Ionization_Penalty_Charging>
  1.4490

> <r_epik_Ionization_Penalty_Neutral>
  2.3263

> <r_epik_State_Penalty>
  4.6074

> <r_epik_Charging_Adjusted_Penalty>
6.05640850160635

> <i_epik_Tot_Q>
0

> <i_epik_Tot_abs_Q>
0

$$$$
SM18
                    3D
 Structure written by MMmdl.
 48 51  0  0  1  0            999 V2000
   -6.7748   -1.4928    1.7359 C   0  0  0  0  0  0
   -5.8267   -1.9872    2.6516 C   0  0  0  0  0  0
   -4.4800   -2.1332    2.2658 C   0  0  0  0  0  0
   -4.0688   -1.7859    0.9622 C   0  0  0  0  0  0
   -5.0296   -1.2884    0.0416 C   0  0  0  0  0  0
   -6.3787   -1.1433    0.4308 C   0  0  0  0  0  0
   -4.5674   -0.9263   -1.3434 C   0  0  0  0  0  0
   -5.3395   -0.4892   -2.1953 O   0  0  0  0  0  0
   -3.2549   -1.1197   -1.5759 N   0  3  0  0  0  0
   -2.3766   -1.6140   -0.6033 C   0  0  0  0  0  0
   -2.7157   -1.9414    0.6072 N   0  0  0  0  0  0
   -0.9559   -1.7294   -1.1241 C   0  0  0  0  0  0
   -0.2792   -0.3574   -1.3213 C   0  0  0  0  0  0
    1.1497   -0.4717   -1.8604 C   0  0  0  0  0  0
    1.4142   -1.3148   -2.7179 O   0  3  0  0  0  0
    2.0403    0.3945   -1.3418 N   0  0  0  0  0  0
    3.4140    0.5442   -1.6672 C   0  0  0  0  0  0
    4.2389    1.4166   -1.0778 N   0  0  0  0  0  0
    5.5421    1.3196   -1.5707 C   0  0  0  0  0  0
    5.6944    0.3793   -2.5611 C   0  0  0  0  0  0
    4.1859   -0.4282   -2.9096 S   0  0  0  0  0  0
    6.9461    0.0290   -3.2960 C   0  0  0  0  0  0
    7.2550    1.0266   -4.3959 C   0  0  0  0  0  0
    8.1457    2.0943   -4.1567 C   0  0  0  0  0  0
    8.4270    3.0229   -5.1776 C   0  0  0  0  0  0
    7.8183    2.8884   -6.4406 C   0  0  0  0  0  0
    6.9275    1.8241   -6.6825 C   0  0  0  0  0  0
    6.6465    0.8949   -5.6619 C   0  0  0  0  0  0
    6.3401    1.6930   -7.8956 F   0  0  0  0  0  0
    8.0900    3.7825   -7.4208 F   0  0  0  0  0  0
   -2.8803   -0.8714   -2.5800 H   0  0  0  0  0  0
   -7.7301   -1.3900    2.0129 H   0  0  0  0  0  0
   -6.1111   -2.2349    3.5777 H   0  0  0  0  0  0
   -3.8084   -2.4850    2.9178 H   0  0  0  0  0  0
   -7.0529   -0.7926   -0.2192 H   0  0  0  0  0  0
   -0.9925   -2.2618   -2.0860 H   0  0  0  0  0  0
   -0.3789   -2.3220   -0.3989 H   0  0  0  0  0  0
   -0.8620    0.2391   -2.0387 H   0  0  0  0  0  0
   -0.2332    0.1706   -0.3575 H   0  0  0  0  0  0
    6.3281    1.8587   -1.2679 H   0  0  0  0  0  0
    6.8193   -0.9721   -3.7340 H   0  0  0  0  0  0
    7.7756    0.0108   -2.5738 H   0  0  0  0  0  0
    8.6139    2.2054   -3.1896 H   0  0  0  0  0  0
    9.1095    3.8390   -4.9914 H   0  0  0  0  0  0
    5.9610    0.0819   -5.8520 H   0  0  0  0  0  0
    1.5832    1.0382   -0.5758 H   0  0  0  0  0  0
   -1.9947   -2.3266    1.3432 H   0  0  0  0  0  0
    0.6254   -1.9828   -3.0942 H   0  0  0  0  0  0
  1  6  1  0  0  0
  1 32  1  0  0  0
  1  2  2  0  0  0
  2 33  1  0  0  0
  2  3  1  0  0  0
  3 34  1  0  0  0
  3  4  2  0  0  0
  4  5  1  0  0  0
  4 11  1  0  0  0
  5  7  1  0  0  0
  5  6  2  0  0  0
  6 35  1  0  0  0
  7  8  2  0  0  0
  7  9  1  0  0  0
  9 10  2  0  0  0
  9 31  1  0  0  0
 10 11  1  0  0  0
 10 12  1  0  0  0
 11 47  1  0  0  0
 12 13  1  0  0  0
 12 36  1  0  0  0
 12 37  1  0  0  0
 13 38  1  0  0  0
 13 39  1  0  0  0
 13 14  1  0  0  0
 14 16  1  0  0  0
 14 15  2  0  0  0
 15 48  1  0  0  0
 16 17  1  0  0  0
 16 46  1  0  0  0
 17 21  1  0  0  0
 17 18  2  0  0  0
 18 19  1  0  0  0
 19 40  1  0  0  0
 19 20  2  0  0  0
 20 22  1  0  0  0
 20 21  1  0  0  0
 22 23  1  0  0  0
 22 41  1  0  0  0
 22 42  1  0  0  0
 23 28  1  0  0  0
 23 24  2  0  0  0
 24 25  1  0  0  0
 24 43  1  0  0  0
 25 26  2  0  0  0
 25 44  1  0  0  0
 26 27  1  0  0  0
 26 30  1  0  0  0
 27 28  2  0  0  0
 27 29  1  0  0  0
 28 45  1  0  0  0
M  CHG  2   9   1  15   1
M  END
> <s_m_source_file>
SM18.smi

> <i_m_source_file_index>
1

> <i_lp_mmshare_version>
38013

> <i_f3d_flags>
0

> <s_lp_Force_Field>
OPLS_2005

> <r_lp_Energy>
17.4490160392642

> <b_lp_Chiralities_Consistent>
1

> <s_lp_Variant>
SM18-1

> <r_epik_Ionization_Penalty>
  5.7330

> <r_epik_Ionization_Penalty_Charging>
  3.6170

> <r_epik_Ionization_Penalty_Neutral>
  2.1160

> <r_epik_State_Penalty>
  4.7229

> <r_epik_Charging_Adjusted_Penalty>
8.33995163970256

> <i_epik_Tot_Q>
2

> <i_epik_Tot_abs_Q>
2

$$$$
SM18
                    3D
 Structure written by MMmdl.
 48 51  0  0  1  0            999 V2000
   -6.7748   -1.4928    1.7359 C   0  0  0  0  0  0
   -5.8267   -1.9872    2.6516 C   0  0  0  0  0  0
   -4.4800   -2.1332    2.2658 C   0  0  0  0  0  0
   -4.0688   -1.7859    0.9622 C   0  0  0  0  0  0
   -5.0296   -1.2884    0.0416 C   0  0  0  0  0  0
   -6.3787   -1.1433    0.4308 C   0  0  0  0  0  0
   -4.5674   -0.9263   -1.3434 C   0  0  0  0  0  0
   -5.3395   -0.4892   -2.1953 O   0  0  0  0  0  0
   -3.2549   -1.1197   -1.5759 N   0  0  0  0  0  0
   -2.3766   -1.6140   -0.6033 C   0  0  0  0  0  0
   -2.7157   -1.9414    0.6072 N   0  0  0  0  0  0
   -0.9559   -1.7294   -1.1241 C   0  0  0  0  0  0
   -0.2792   -0.3574   -1.3213 C   0  0  0  0  0  0
    1.1497   -0.4717   -1.8604 C   0  0  0  0  0  0
    1.4142   -1.3148   -2.7179 O   0  3  0  0  0  0
    2.0403    0.3945   -1.3418 N   0  0  0  0  0  0
    3.4140    0.5442   -1.6672 C   0  0  0  0  0  0
    4.2389    1.4166   -1.0778 N   0  3  0  0  0  0
    5.5421    1.3196   -1.5707 C   0  0  0  0  0  0
    5.6944    0.3793   -2.5611 C   0  0  0  0  0  0
    4.1859   -0.4282   -2.9096 S   0  0  0  0  0  0
    6.9461    0.0290   -3.2960 C   0  0  0  0  0  0
    7.2550    1.0266   -4.3959 C   0  0  0  0  0  0
    8.1457    2.0943   -4.1567 C   0  0  0  0  0  0
    8.4270    3.0229   -5.1776 C   0  0  0  0  0  0
    7.8183    2.8884   -6.4406 C   0  0  0  0  0  0
    6.9275    1.8241   -6.6825 C   0  0  0  0  0  0
    6.6465    0.8949   -5.6619 C   0  0  0  0  0  0
    6.3401    1.6930   -7.8956 F   0  0  0  0  0  0
    8.0900    3.7825   -7.4208 F   0  0  0  0  0  0
   -1.9947   -2.3266    1.3432 H   0  0  0  0  0  0
   -7.7301   -1.3900    2.0129 H   0  0  0  0  0  0
   -6.1112   -2.2351    3.5776 H   0  0  0  0  0  0
   -3.8083   -2.4846    2.9179 H   0  0  0  0  0  0
   -7.0529   -0.7926   -0.2192 H   0  0  0  0  0  0
   -0.9925   -2.2618   -2.0860 H   0  0  0  0  0  0
   -0.3789   -2.3220   -0.3989 H   0  0  0  0  0  0
   -0.8620    0.2391   -2.0387 H   0  0  0  0  0  0
   -0.2332    0.1706   -0.3575 H   0  0  0  0  0  0
    6.3281    1.8587   -1.2679 H   0  0  0  0  0  0
    6.8193   -0.9721   -3.7340 H   0  0  0  0  0  0
    7.7756    0.0108   -2.5738 H   0  0  0  0  0  0
    8.6139    2.2054   -3.1896 H   0  0  0  0  0  0
    9.1095    3.8390   -4.9914 H   0  0  0  0  0  0
    5.9610    0.0819   -5.8520 H   0  0  0  0  0  0
    1.5832    1.0382   -0.5758 H   0  0  0  0  0  0
    4.0001    2.1516   -0.2951 H   0  0  0  0  0  0
    0.6254   -1.9828   -3.0942 H   0  0  0  0  0  0
  1  6  2  0  0  0
  1 32  1  0  0  0
  1  2  1  0  0  0
  2 33  1  0  0  0
  2  3  2  0  0  0
  3 34  1  0  0  0
  3  4  1  0  0  0
  4  5  2  0  0  0
  4 11  1  0  0  0
  5  7  1  0  0  0
  5  6  1  0  0  0
  6 35  1  0  0  0
  7  8  2  0  0  0
  7  9  1  0  0  0
  9 10  2  0  0  0
 10 11  1  0  0  0
 10 12  1  0  0  0
 11 31  1  0  0  0
 12 13  1  0  0  0
 12 36  1  0  0  0
 12 37  1  0  0  0
 13 38  1  0  0  0
 13 39  1  0  0  0
 13 14  1  0  0  0
 14 16  1  0  0  0
 14 15  2  0  0  0
 15 48  1  0  0  0
 16 17  1  0  0  0
 16 46  1  0  0  0
 17 21  1  0  0  0
 17 18  2  0  0  0
 18 19  1  0  0  0
 18 47  1  0  0  0
 19 40  1  0  0  0
 19 20  2  0  0  0
 20 22  1  0  0  0
 20 21  1  0  0  0
 22 23  1  0  0  0
 22 41  1  0  0  0
 22 42  1  0  0  0
 23 28  1  0  0  0
 23 24  2  0  0  0
 24 25  1  0  0  0
 24 43  1  0  0  0
 25 26  2  0  0  0
 25 44  1  0  0  0
 26 27  1  0  0  0
 26 30  1  0  0  0
 27 28  2  0  0  0
 27 29  1  0  0  0
 28 45  1  0  0  0
M  CHG  2  15   1  18   1
M  END
> <s_m_source_file>
SM18.smi

> <i_m_source_file_index>
1

> <i_lp_mmshare_version>
38013

> <i_f3d_flags>
0

> <s_lp_Force_Field>
OPLS_2005

> <r_lp_Energy>
17.4490160392642

> <b_lp_Chiralities_Consistent>
1

> <s_lp_Variant>
SM18-1

> <r_epik_Ionization_Penalty>
  5.6900

> <r_epik_Ionization_Penalty_Charging>
  4.3520

> <r_epik_Ionization_Penalty_Neutral>
  1.3379

> <r_epik_State_Penalty>
  5.2630

> <r_epik_Charging_Adjusted_Penalty>
9.61499709198437

> <i_epik_Tot_Q>
2

> <i_epik_Tot_abs_Q>
2

$$$$
SM18
                    3D
 Structure written by MMmdl.
 47 50  0  0  1  0            999 V2000
   -6.7748   -1.4928    1.7359 C   0  0  0  0  0  0
   -5.8267   -1.9872    2.6516 C   0  0  0  0  0  0
   -4.4800   -2.1332    2.2658 C   0  0  0  0  0  0
   -4.0688   -1.7859    0.9622 C   0  0  0  0  0  0
   -5.0296   -1.2884    0.0416 C   0  0  0  0  0  0
   -6.3787   -1.1433    0.4308 C   0  0  0  0  0  0
   -4.5674   -0.9263   -1.3434 C   0  0  0  0  0  0
   -5.3395   -0.4892   -2.1953 O   0  0  0  0  0  0
   -3.2549   -1.1197   -1.5759 N   0  0  0  0  0  0
   -2.3766   -1.6140   -0.6033 C   0  0  0  0  0  0
   -2.7157   -1.9414    0.6072 N   0  0  0  0  0  0
   -0.9559   -1.7294   -1.1241 C   0  0  0  0  0  0
   -0.2792   -0.3574   -1.3213 C   0  0  0  0  0  0
    1.1497   -0.4717   -1.8604 C   0  0  0  0  0  0
    1.4142   -1.3148   -2.7179 O   0  3  0  0  0  0
    2.0403    0.3945   -1.3418 N   0  0  0  0  0  0
    3.4140    0.5442   -1.6672 C   0  0  0  0  0  0
    4.2389    1.4166   -1.0778 N   0  0  0  0  0  0
    5.5421    1.3196   -1.5707 C   0  0  0  0  0  0
    5.6944    0.3793   -2.5611 C   0  0  0  0  0  0
    4.1859   -0.4282   -2.9096 S   0  0  0  0  0  0
    6.9461    0.0290   -3.2960 C   0  0  0  0  0  0
    7.2550    1.0266   -4.3959 C   0  0  0  0  0  0
    8.1457    2.0943   -4.1567 C   0  0  0  0  0  0
    8.4270    3.0229   -5.1776 C   0  0  0  0  0  0
    7.8183    2.8884   -6.4406 C   0  0  0  0  0  0
    6.9275    1.8241   -6.6825 C   0  0  0  0  0  0
    6.6465    0.8949   -5.6619 C   0  0  0  0  0  0
    6.3401    1.6930   -7.8956 F   0  0  0  0  0  0
    8.0900    3.7825   -7.4208 F   0  0  0  0  0  0
   -2.8803   -0.8714   -2.5800 H   0  0  0  0  0  0
   -7.7301   -1.3900    2.0129 H   0  0  0  0  0  0
   -6.1111   -2.2349    3.5777 H   0  0  0  0  0  0
   -3.8084   -2.4850    2.9178 H   0  0  0  0  0  0
   -7.0529   -0.7926   -0.2192 H   0  0  0  0  0  0
   -0.9925   -2.2618   -2.0860 H   0  0  0  0  0  0
   -0.3789   -2.3220   -0.3989 H   0  0  0  0  0  0
   -0.8620    0.2391   -2.0387 H   0  0  0  0  0  0
   -0.2332    0.1706   -0.3575 H   0  0  0  0  0  0
    6.3281    1.8587   -1.2679 H   0  0  0  0  0  0
    6.8193   -0.9721   -3.7340 H   0  0  0  0  0  0
    7.7756    0.0108   -2.5738 H   0  0  0  0  0  0
    8.6139    2.2054   -3.1896 H   0  0  0  0  0  0
    9.1095    3.8390   -4.9914 H   0  0  0  0  0  0
    5.9610    0.0819   -5.8520 H   0  0  0  0  0  0
    1.5832    1.0382   -0.5758 H   0  0  0  0  0  0
    0.6254   -1.9828   -3.0942 H   0  0  0  0  0  0
  1  6  2  0  0  0
  1 32  1  0  0  0
  1  2  1  0  0  0
  2 33  1  0  0  0
  2  3  2  0  0  0
  3 34  1  0  0  0
  3  4  1  0  0  0
  4  5  2  0  0  0
  4 11  1  0  0  0
  5  7  1  0  0  0
  5  6  1  0  0  0
  6 35  1  0  0  0
  7  8  2  0  0  0
  7  9  1  0  0  0
  9 10  1  0  0  0
  9 31  1  0  0  0
 10 11  2  0  0  0
 10 12  1  0  0  0
 12 13  1  0  0  0
 12 36  1  0  0  0
 12 37  1  0  0  0
 13 38  1  0  0  0
 13 39  1  0  0  0
 13 14  1  0  0  0
 14 16  1  0  0  0
 14 15  2  0  0  0
 15 47  1  0  0  0
 16 17  1  0  0  0
 16 46  1  0  0  0
 17 21  1  0  0  0
 17 18  2  0  0  0
 18 19  1  0  0  0
 19 40  1  0  0  0
 19 20  2  0  0  0
 20 22  1  0  0  0
 20 21  1  0  0  0
 22 23  1  0  0  0
 22 41  1  0  0  0
 22 42  1  0  0  0
 23 28  1  0  0  0
 23 24  2  0  0  0
 24 25  1  0  0  0
 24 43  1  0  0  0
 25 26  2  0  0  0
 25 44  1  0  0  0
 26 27  1  0  0  0
 26 30  1  0  0  0
 27 28  2  0  0  0
 27 29  1  0  0  0
 28 45  1  0  0  0
M  CHG  1  15   1
M  END
> <s_m_source_file>
SM18.smi

> <i_m_source_file_index>
1

> <i_lp_mmshare_version>
38013

> <i_f3d_flags>
0

> <s_lp_Force_Field>
OPLS_2005

> <r_lp_Energy>
17.4490160392642

> <b_lp_Chiralities_Consistent>
1

> <s_lp_Variant>
SM18-1

> <r_epik_Ionization_Penalty>
  6.5637

> <r_epik_Ionization_Penalty_Charging>
  3.4362

> <r_epik_Ionization_Penalty_Neutral>
  3.1275

> <r_epik_State_Penalty>
  5.5785

> <r_epik_Charging_Adjusted_Penalty>
9.01465858932781

> <i_epik_Tot_Q>
1

> <i_epik_Tot_abs_Q>
1

$$$$
SM18
                    3D
 Structure written by MMmdl.
 47 50  0  0  1  0            999 V2000
   -6.8393   -1.3580    1.6101 C   0  0  0  0  0  0
   -5.9073   -1.8577    2.5393 C   0  0  0  0  0  0
   -4.5577   -2.0194    2.1703 C   0  0  0  0  0  0
   -4.1274   -1.6827    0.8702 C   0  0  0  0  0  0
   -5.0720   -1.1798   -0.0641 C   0  0  0  0  0  0
   -6.4241   -1.0189    0.3082 C   0  0  0  0  0  0
   -4.5897   -0.8292   -1.4453 C   0  0  0  0  0  0
   -5.3470   -0.3882   -2.3084 O   0  0  0  0  0  0
   -3.2765   -1.0371   -1.6612 N   0  3  0  0  0  0
   -2.4151   -1.5358   -0.6758 C   0  0  0  0  0  0
   -2.7719   -1.8538    0.5321 N   0  0  0  0  0  0
   -0.9895   -1.6683   -1.1791 C   0  0  0  0  0  0
   -0.2964   -0.3043   -1.3746 C   0  0  0  0  0  0
    1.1376   -0.4359   -1.8960 C   0  0  0  0  0  0
    1.4036   -1.2858   -2.7463 O   0  0  0  0  0  0
    2.0309    0.4236   -1.3709 N   0  0  0  0  0  0
    3.4099    0.5576   -1.6805 C   0  0  0  0  0  0
    4.2389    1.4166   -1.0778 N   0  0  0  0  0  0
    5.5421    1.3196   -1.5707 C   0  0  0  0  0  0
    5.6944    0.3793   -2.5611 C   0  0  0  0  0  0
    4.1830   -0.4185   -2.9193 S   0  0  0  0  0  0
    6.9461    0.0290   -3.2960 C   0  0  0  0  0  0
    7.2550    1.0266   -4.3959 C   0  0  0  0  0  0
    8.1457    2.0943   -4.1567 C   0  0  0  0  0  0
    8.4270    3.0229   -5.1776 C   0  0  0  0  0  0
    7.8183    2.8884   -6.4406 C   0  0  0  0  0  0
    6.9275    1.8241   -6.6825 C   0  0  0  0  0  0
    6.6465    0.8949   -5.6619 C   0  0  0  0  0  0
    6.3401    1.6930   -7.8956 F   0  0  0  0  0  0
    8.0900    3.7825   -7.4208 F   0  0  0  0  0  0
   -2.8875   -0.7976   -2.6618 H   0  0  0  0  0  0
   -7.7967   -1.2441    1.8752 H   0  0  0  0  0  0
   -6.2053   -2.0980    3.4631 H   0  0  0  0  0  0
   -3.8976   -2.3750    2.8320 H   0  0  0  0  0  0
   -7.0868   -0.6645   -0.3515 H   0  0  0  0  0  0
   -1.0202   -2.2049   -2.1388 H   0  0  0  0  0  0
   -0.4274   -2.2633   -0.4442 H   0  0  0  0  0  0
   -0.8643    0.2947   -2.1016 H   0  0  0  0  0  0
   -0.2563    0.2279   -0.4127 H   0  0  0  0  0  0
    6.3281    1.8587   -1.2679 H   0  0  0  0  0  0
    6.8193   -0.9721   -3.7340 H   0  0  0  0  0  0
    7.7756    0.0108   -2.5738 H   0  0  0  0  0  0
    8.6139    2.2054   -3.1896 H   0  0  0  0  0  0
    9.1095    3.8390   -4.9914 H   0  0  0  0  0  0
    5.9610    0.0819   -5.8520 H   0  0  0  0  0  0
    4.0033    2.1415   -0.2847 H   0  0  0  0  0  0
   -2.0637   -2.2428    1.2785 H   0  0  0  0  0  0
  1  6  1  0  0  0
  1 32  1  0  0  0
  1  2  2  0  0  0
  2 33  1  0  0  0
  2  3  1  0  0  0
  3 34  1  0  0  0
  3  4  2  0  0  0
  4  5  1  0  0  0
  4 11  1  0  0  0
  5  7  1  0  0  0
  5  6  2  0  0  0
  6 35  1  0  0  0
  7  8  2  0  0  0
  7  9  1  0  0  0
  9 10  2  0  0  0
  9 31  1  0  0  0
 10 11  1  0  0  0
 10 12  1  0  0  0
 11 47  1  0  0  0
 12 13  1  0  0  0
 12 36  1  0  0  0
 12 37  1  0  0  0
 13 38  1  0  0  0
 13 39  1  0  0  0
 13 14  1  0  0  0
 14 16  1  0  0  0
 14 15  2  0  0  0
 16 17  2  0  0  0
 17 21  1  0  0  0
 17 18  1  0  0  0
 18 19  1  0  0  0
 18 46  1  0  0  0
 19 40  1  0  0  0
 19 20  2  0  0  0
 20 22  1  0  0  0
 20 21  1  0  0  0
 22 23  1  0  0  0
 22 41  1  0  0  0
 22 42  1  0  0  0
 23 28  1  0  0  0
 23 24  2  0  0  0
 24 25  1  0  0  0
 24 43  1  0  0  0
 25 26  2  0  0  0
 25 44  1  0  0  0
 26 27  1  0  0  0
 26 30  1  0  0  0
 27 28  2  0  0  0
 27 29  1  0  0  0
 28 45  1  0  0  0
M  CHG  1   9   1
M  END
> <s_m_source_file>
SM18.smi

> <i_m_source_file_index>
1

> <i_lp_mmshare_version>
38013

> <i_f3d_flags>
0

> <s_lp_Force_Field>
OPLS_2005

> <r_lp_Energy>
17.4490160392642

> <b_lp_Chiralities_Consistent>
1

> <s_lp_Variant>
SM18-1

> <r_epik_Ionization_Penalty>
  5.0280

> <r_epik_Ionization_Penalty_Charging>
  2.8000

> <r_epik_Ionization_Penalty_Neutral>
  2.2280

> <r_epik_State_Penalty>
  5.6454

> <r_epik_Charging_Adjusted_Penalty>
8.44539393737596

> <i_epik_Tot_Q>
1

> <i_epik_Tot_abs_Q>
1

$$$$
SM18
                    3D
 Structure written by MMmdl.
 47 50  0  0  1  0            999 V2000
   -7.4271    0.4245   -0.2365 C   0  0  0  0  0  0
   -7.0857    1.0479   -1.4517 C   0  0  0  0  0  0
   -5.7619    1.4694   -1.6830 C   0  0  0  0  0  0
   -4.7676    1.2710   -0.7027 C   0  0  0  0  0  0
   -5.1174    0.6424    0.5223 C   0  0  0  0  0  0
   -6.4451    0.2211    0.7516 C   0  0  0  0  0  0
   -4.0401    0.4433    1.5532 C   0  0  0  0  0  0
   -4.2653   -0.0932    2.6369 O   0  0  0  0  0  0
   -2.8219    0.8972    1.2007 N   0  3  0  0  0  0
   -2.5666    1.5044   -0.0354 C   0  0  0  0  0  0
   -3.4533    1.7016   -0.9641 N   0  0  0  0  0  0
   -1.1132    1.9166   -0.1786 C   0  0  0  0  0  0
   -0.1654    0.7120   -0.3515 C   0  0  0  0  0  0
    1.3034    1.1256   -0.4818 C   0  0  0  0  0  0
    1.7438    2.0442    0.2098 O   0  0  0  0  0  0
    2.0309    0.4236   -1.3709 N   0  0  0  0  0  0
    3.4099    0.5576   -1.6805 C   0  0  0  0  0  0
    4.2389    1.4166   -1.0778 N   0  0  0  0  0  0
    5.5421    1.3196   -1.5707 C   0  0  0  0  0  0
    5.6944    0.3793   -2.5611 C   0  0  0  0  0  0
    4.1830   -0.4185   -2.9193 S   0  0  0  0  0  0
    6.9461    0.0290   -3.2960 C   0  0  0  0  0  0
    7.2550    1.0266   -4.3959 C   0  0  0  0  0  0
    8.1457    2.0943   -4.1567 C   0  0  0  0  0  0
    8.4270    3.0229   -5.1776 C   0  0  0  0  0  0
    7.8183    2.8884   -6.4406 C   0  0  0  0  0  0
    6.9275    1.8241   -6.6825 C   0  0  0  0  0  0
    6.6465    0.8949   -5.6619 C   0  0  0  0  0  0
    6.3401    1.6930   -7.8956 F   0  0  0  0  0  0
    8.0900    3.7825   -7.4208 F   0  0  0  0  0  0
   -2.0089    0.7744    1.9315 H   0  0  0  0  0  0
   -8.3678    0.1261   -0.0754 H   0  0  0  0  0  0
   -7.7856    1.1913   -2.1514 H   0  0  0  0  0  0
   -5.5219    1.9124   -2.5468 H   0  0  0  0  0  0
   -6.6884   -0.2213    1.6148 H   0  0  0  0  0  0
   -0.8321    2.4775    0.7250 H   0  0  0  0  0  0
   -1.0350    2.5738   -1.0572 H   0  0  0  0  0  0
   -0.2513    0.0495    0.5224 H   0  0  0  0  0  0
   -0.4399    0.1571   -1.2607 H   0  0  0  0  0  0
    6.3281    1.8587   -1.2679 H   0  0  0  0  0  0
    6.8193   -0.9721   -3.7340 H   0  0  0  0  0  0
    7.7756    0.0108   -2.5738 H   0  0  0  0  0  0
    8.6139    2.2054   -3.1896 H   0  0  0  0  0  0
    9.1095    3.8390   -4.9914 H   0  0  0  0  0  0
    5.9610    0.0819   -5.8520 H   0  0  0  0  0  0
    4.0033    2.1415   -0.2847 H   0  0  0  0  0  0
   -3.2127    2.1828   -1.9235 H   0  0  0  0  0  0
  1  6  1  0  0  0
  1 32  1  0  0  0
  1  2  2  0  0  0
  2 33  1  0  0  0
  2  3  1  0  0  0
  3 34  1  0  0  0
  3  4  2  0  0  0
  4  5  1  0  0  0
  4 11  1  0  0  0
  5  7  1  0  0  0
  5  6  2  0  0  0
  6 35  1  0  0  0
  7  8  2  0  0  0
  7  9  1  0  0  0
  9 10  2  0  0  0
  9 31  1  0  0  0
 10 11  1  0  0  0
 10 12  1  0  0  0
 11 47  1  0  0  0
 12 13  1  0  0  0
 12 36  1  0  0  0
 12 37  1  0  0  0
 13 38  1  0  0  0
 13 39  1  0  0  0
 13 14  1  0  0  0
 14 16  1  0  0  0
 14 15  2  0  0  0
 16 17  2  0  0  0
 17 21  1  0  0  0
 17 18  1  0  0  0
 18 19  1  0  0  0
 18 46  1  0  0  0
 19 40  1  0  0  0
 19 20  2  0  0  0
 20 22  1  0  0  0
 20 21  1  0  0  0
 22 23  1  0  0  0
 22 41  1  0  0  0
 22 42  1  0  0  0
 23 28  1  0  0  0
 23 24  2  0  0  0
 24 25  1  0  0  0
 24 43  1  0  0  0
 25 26  2  0  0  0
 25 44  1  0  0  0
 26 27  1  0  0  0
 26 30  1  0  0  0
 27 28  2  0  0  0
 27 29  1  0  0  0
 28 45  1  0  0  0
M  CHG  1   9   1
M  END
> <s_m_source_file>
SM18.smi

> <i_m_source_file_index>
1

> <i_lp_mmshare_version>
38013

> <i_f3d_flags>
0

> <s_lp_Force_Field>
OPLS_2005

> <r_lp_Energy>
17.4490160392642

> <b_lp_Chiralities_Consistent>
1

> <s_lp_Variant>
SM18-1

> <r_epik_Ionization_Penalty>
  5.0280

> <r_epik_Ionization_Penalty_Charging>
  2.8000

> <r_epik_Ionization_Penalty_Neutral>
  2.2280

> <r_epik_State_Penalty>
  5.6454

> <r_epik_Charging_Adjusted_Penalty>
8.44539393737597

> <i_epik_Tot_Q>
1

> <i_epik_Tot_abs_Q>
1

$$$$
SM18
                    3D
 Structure written by MMmdl.
 46 49  0  0  1  0            999 V2000
   -7.4271    0.4245   -0.2365 C   0  0  0  0  0  0
   -7.0857    1.0479   -1.4517 C   0  0  0  0  0  0
   -5.7619    1.4694   -1.6830 C   0  0  0  0  0  0
   -4.7676    1.2710   -0.7027 C   0  0  0  0  0  0
   -5.1174    0.6424    0.5223 C   0  0  0  0  0  0
   -6.4451    0.2211    0.7516 C   0  0  0  0  0  0
   -4.0401    0.4433    1.5532 C   0  0  0  0  0  0
   -4.2653   -0.0932    2.6369 O   0  0  0  0  0  0
   -2.8219    0.8972    1.2007 N   0  0  0  0  0  0
   -2.5666    1.5044   -0.0354 C   0  0  0  0  0  0
   -3.4533    1.7016   -0.9641 N   0  0  0  0  0  0
   -1.1132    1.9166   -0.1786 C   0  0  0  0  0  0
   -0.1654    0.7120   -0.3515 C   0  0  0  0  0  0
    1.3034    1.1256   -0.4818 C   0  0  0  0  0  0
    1.7438    2.0442    0.2098 O   0  0  0  0  0  0
    2.0309    0.4236   -1.3709 N   0  0  0  0  0  0
    3.4099    0.5576   -1.6805 C   0  0  0  0  0  0
    4.2389    1.4166   -1.0778 N   0  0  0  0  0  0
    5.5421    1.3196   -1.5707 C   0  0  0  0  0  0
    5.6944    0.3793   -2.5611 C   0  0  0  0  0  0
    4.1830   -0.4185   -2.9193 S   0  0  0  0  0  0
    6.9461    0.0290   -3.2960 C   0  0  0  0  0  0
    7.2550    1.0266   -4.3959 C   0  0  0  0  0  0
    8.1457    2.0943   -4.1567 C   0  0  0  0  0  0
    8.4270    3.0229   -5.1776 C   0  0  0  0  0  0
    7.8183    2.8884   -6.4406 C   0  0  0  0  0  0
    6.9275    1.8241   -6.6825 C   0  0  0  0  0  0
    6.6465    0.8949   -5.6619 C   0  0  0  0  0  0
    6.3401    1.6930   -7.8956 F   0  0  0  0  0  0
    8.0900    3.7825   -7.4208 F   0  0  0  0  0  0
   -3.2127    2.1828   -1.9235 H   0  0  0  0  0  0
   -8.3678    0.1261   -0.0754 H   0  0  0  0  0  0
   -7.7856    1.1915   -2.1514 H   0  0  0  0  0  0
   -5.5218    1.9121   -2.5469 H   0  0  0  0  0  0
   -6.6884   -0.2213    1.6148 H   0  0  0  0  0  0
   -0.8321    2.4775    0.7250 H   0  0  0  0  0  0
   -1.0350    2.5738   -1.0572 H   0  0  0  0  0  0
   -0.2513    0.0495    0.5224 H   0  0  0  0  0  0
   -0.4399    0.1571   -1.2607 H   0  0  0  0  0  0
    6.3281    1.8587   -1.2679 H   0  0  0  0  0  0
    6.8193   -0.9721   -3.7340 H   0  0  0  0  0  0
    7.7756    0.0108   -2.5738 H   0  0  0  0  0  0
    8.6139    2.2054   -3.1896 H   0  0  0  0  0  0
    9.1095    3.8390   -4.9914 H   0  0  0  0  0  0
    5.9610    0.0819   -5.8520 H   0  0  0  0  0  0
    4.0033    2.1415   -0.2847 H   0  0  0  0  0  0
  1  6  2  0  0  0
  1 32  1  0  0  0
  1  2  1  0  0  0
  2 33  1  0  0  0
  2  3  2  0  0  0
  3 34  1  0  0  0
  3  4  1  0  0  0
  4  5  2  0  0  0
  4 11  1  0  0  0
  5  7  1  0  0  0
  5  6  1  0  0  0
  6 35  1  0  0  0
  7  8  2  0  0  0
  7  9  1  0  0  0
  9 10  2  0  0  0
 10 11  1  0  0  0
 10 12  1  0  0  0
 11 31  1  0  0  0
 12 13  1  0  0  0
 12 36  1  0  0  0
 12 37  1  0  0  0
 13 38  1  0  0  0
 13 39  1  0  0  0
 13 14  1  0  0  0
 14 16  1  0  0  0
 14 15  2  0  0  0
 16 17  2  0  0  0
 17 21  1  0  0  0
 17 18  1  0  0  0
 18 19  1  0  0  0
 18 46  1  0  0  0
 19 40  1  0  0  0
 19 20  2  0  0  0
 20 22  1  0  0  0
 20 21  1  0  0  0
 22 23  1  0  0  0
 22 41  1  0  0  0
 22 42  1  0  0  0
 23 28  1  0  0  0
 23 24  2  0  0  0
 24 25  1  0  0  0
 24 43  1  0  0  0
 25 26  2  0  0  0
 25 44  1  0  0  0
 26 27  1  0  0  0
 26 30  1  0  0  0
 27 28  2  0  0  0
 27 29  1  0  0  0
 28 45  1  0  0  0
M  END
> <s_m_source_file>
SM18.smi

> <i_m_source_file_index>
1

> <i_lp_mmshare_version>
38013

> <i_f3d_flags>
0

> <s_lp_Force_Field>
OPLS_2005

> <r_lp_Energy>
17.4490160392642

> <b_lp_Chiralities_Consistent>
1

> <s_lp_Variant>
SM18-1

> <r_lp_tautomer_probability>
5.79965010901507e-05

> <r_epik_Ionization_Penalty>
  4.3326

> <r_epik_Ionization_Penalty_Charging>
  1.4490

> <r_epik_Ionization_Penalty_Neutral>
  2.8836

> <r_epik_State_Penalty>
  5.9788

> <r_epik_Charging_Adjusted_Penalty>
7.42776754782092

> <i_epik_Tot_Q>
0

> <i_epik_Tot_abs_Q>
0

$$$$
SM18
                    3D
 Structure written by MMmdl.
 46 49  0  0  1  0            999 V2000
   -6.8393   -1.3580    1.6101 C   0  0  0  0  0  0
   -5.9073   -1.8577    2.5393 C   0  0  0  0  0  0
   -4.5577   -2.0194    2.1703 C   0  0  0  0  0  0
   -4.1274   -1.6827    0.8702 C   0  0  0  0  0  0
   -5.0720   -1.1798   -0.0641 C   0  0  0  0  0  0
   -6.4241   -1.0189    0.3082 C   0  0  0  0  0  0
   -4.5897   -0.8292   -1.4453 C   0  0  0  0  0  0
   -5.3470   -0.3882   -2.3084 O   0  0  0  0  0  0
   -3.2765   -1.0371   -1.6612 N   0  0  0  0  0  0
   -2.4151   -1.5358   -0.6758 C   0  0  0  0  0  0
   -2.7719   -1.8538    0.5321 N   0  0  0  0  0  0
   -0.9895   -1.6683   -1.1791 C   0  0  0  0  0  0
   -0.2964   -0.3043   -1.3746 C   0  0  0  0  0  0
    1.1376   -0.4359   -1.8960 C   0  0  0  0  0  0
    1.4036   -1.2858   -2.7463 O   0  0  0  0  0  0
    2.0309    0.4236   -1.3709 N   0  0  0  0  0  0
    3.4099    0.5576   -1.6805 C   0  0  0  0  0  0
    4.2389    1.4166   -1.0778 N   0  0  0  0  0  0
    5.5421    1.3196   -1.5707 C   0  0  0  0  0  0
    5.6944    0.3793   -2.5611 C   0  0  0  0  0  0
    4.1830   -0.4185   -2.9193 S   0  0  0  0  0  0
    6.9461    0.0290   -3.2960 C   0  0  0  0  0  0
    7.2550    1.0266   -4.3959 C   0  0  0  0  0  0
    8.1457    2.0943   -4.1567 C   0  0  0  0  0  0
    8.4270    3.0229   -5.1776 C   0  0  0  0  0  0
    7.8183    2.8884   -6.4406 C   0  0  0  0  0  0
    6.9275    1.8241   -6.6825 C   0  0  0  0  0  0
    6.6465    0.8949   -5.6619 C   0  0  0  0  0  0
    6.3401    1.6930   -7.8956 F   0  0  0  0  0  0
    8.0900    3.7825   -7.4208 F   0  0  0  0  0  0
   -2.0637   -2.2428    1.2785 H   0  0  0  0  0  0
   -7.7967   -1.2441    1.8752 H   0  0  0  0  0  0
   -6.2054   -2.0982    3.4631 H   0  0  0  0  0  0
   -3.8975   -2.3746    2.8321 H   0  0  0  0  0  0
   -7.0868   -0.6645   -0.3515 H   0  0  0  0  0  0
   -1.0202   -2.2049   -2.1388 H   0  0  0  0  0  0
   -0.4274   -2.2633   -0.4442 H   0  0  0  0  0  0
   -0.8643    0.2947   -2.1016 H   0  0  0  0  0  0
   -0.2563    0.2279   -0.4127 H   0  0  0  0  0  0
    6.3281    1.8587   -1.2679 H   0  0  0  0  0  0
    6.8193   -0.9721   -3.7340 H   0  0  0  0  0  0
    7.7756    0.0108   -2.5738 H   0  0  0  0  0  0
    8.6139    2.2054   -3.1896 H   0  0  0  0  0  0
    9.1095    3.8390   -4.9914 H   0  0  0  0  0  0
    5.9610    0.0819   -5.8520 H   0  0  0  0  0  0
    4.0033    2.1415   -0.2847 H   0  0  0  0  0  0
  1  6  2  0  0  0
  1 32  1  0  0  0
  1  2  1  0  0  0
  2 33  1  0  0  0
  2  3  2  0  0  0
  3 34  1  0  0  0
  3  4  1  0  0  0
  4  5  2  0  0  0
  4 11  1  0  0  0
  5  7  1  0  0  0
  5  6  1  0  0  0
  6 35  1  0  0  0
  7  8  2  0  0  0
  7  9  1  0  0  0
  9 10  2  0  0  0
 10 11  1  0  0  0
 10 12  1  0  0  0
 11 31  1  0  0  0
 12 13  1  0  0  0
 12 36  1  0  0  0
 12 37  1  0  0  0
 13 38  1  0  0  0
 13 39  1  0  0  0
 13 14  1  0  0  0
 14 16  1  0  0  0
 14 15  2  0  0  0
 16 17  2  0  0  0
 17 21  1  0  0  0
 17 18  1  0  0  0
 18 19  1  0  0  0
 18 46  1  0  0  0
 19 40  1  0  0  0
 19 20  2  0  0  0
 20 22  1  0  0  0
 20 21  1  0  0  0
 22 23  1  0  0  0
 22 41  1  0  0  0
 22 42  1  0  0  0
 23 28  1  0  0  0
 23 24  2  0  0  0
 24 25  1  0  0  0
 24 43  1  0  0  0
 25 26  2  0  0  0
 25 44  1  0  0  0
 26 27  1  0  0  0
 26 30  1  0  0  0
 27 28  2  0  0  0
 27 29  1  0  0  0
 28 45  1  0  0  0
M  END
> <s_m_source_file>
SM18.smi

> <i_m_source_file_index>
1

> <i_lp_mmshare_version>
38013

> <i_f3d_flags>
0

> <s_lp_Force_Field>
OPLS_2005

> <r_lp_Energy>
17.4490160392642

> <b_lp_Chiralities_Consistent>
1

> <s_lp_Variant>
SM18-1

> <r_lp_tautomer_probability>
5.79965010901507e-05

> <r_epik_Ionization_Penalty>
  4.3326

> <r_epik_Ionization_Penalty_Charging>
  1.4490

> <r_epik_Ionization_Penalty_Neutral>
  2.8836

> <r_epik_State_Penalty>
  5.9788

> <r_epik_Charging_Adjusted_Penalty>
7.42776754782092

> <i_epik_Tot_Q>
0

> <i_epik_Tot_abs_Q>
0

$$$$
SM18
                    3D
 Structure written by MMmdl.
 47 50  0  0  1  0            999 V2000
   -6.7748   -1.4928    1.7359 C   0  0  0  0  0  0
   -5.8267   -1.9872    2.6516 C   0  0  0  0  0  0
   -4.4800   -2.1332    2.2658 C   0  0  0  0  0  0
   -4.0688   -1.7859    0.9622 C   0  0  0  0  0  0
   -5.0296   -1.2884    0.0416 C   0  0  0  0  0  0
   -6.3787   -1.1433    0.4308 C   0  0  0  0  0  0
   -4.5674   -0.9263   -1.3434 C   0  0  0  0  0  0
   -5.3395   -0.4892   -2.1953 O   0  0  0  0  0  0
   -3.2549   -1.1197   -1.5759 N   0  0  0  0  0  0
   -2.3766   -1.6140   -0.6033 C   0  0  0  0  0  0
   -2.7157   -1.9414    0.6072 N   0  0  0  0  0  0
   -0.9559   -1.7294   -1.1241 C   0  0  0  0  0  0
   -0.2792   -0.3574   -1.3213 C   0  0  0  0  0  0
    1.1497   -0.4717   -1.8604 C   0  0  0  0  0  0
    1.4142   -1.3148   -2.7179 O   0  3  0  0  0  0
    2.0403    0.3945   -1.3418 N   0  0  0  0  0  0
    3.4140    0.5442   -1.6672 C   0  0  0  0  0  0
    4.2389    1.4166   -1.0778 N   0  0  0  0  0  0
    5.5421    1.3196   -1.5707 C   0  0  0  0  0  0
    5.6944    0.3793   -2.5611 C   0  0  0  0  0  0
    4.1859   -0.4282   -2.9096 S   0  0  0  0  0  0
    6.9461    0.0290   -3.2960 C   0  0  0  0  0  0
    7.2550    1.0266   -4.3959 C   0  0  0  0  0  0
    8.1457    2.0943   -4.1567 C   0  0  0  0  0  0
    8.4270    3.0229   -5.1776 C   0  0  0  0  0  0
    7.8183    2.8884   -6.4406 C   0  0  0  0  0  0
    6.9275    1.8241   -6.6825 C   0  0  0  0  0  0
    6.6465    0.8949   -5.6619 C   0  0  0  0  0  0
    6.3401    1.6930   -7.8956 F   0  0  0  0  0  0
    8.0900    3.7825   -7.4208 F   0  0  0  0  0  0
   -1.9947   -2.3266    1.3432 H   0  0  0  0  0  0
   -7.7301   -1.3900    2.0129 H   0  0  0  0  0  0
   -6.1112   -2.2351    3.5776 H   0  0  0  0  0  0
   -3.8083   -2.4846    2.9179 H   0  0  0  0  0  0
   -7.0529   -0.7926   -0.2192 H   0  0  0  0  0  0
   -0.9925   -2.2618   -2.0860 H   0  0  0  0  0  0
   -0.3789   -2.3220   -0.3989 H   0  0  0  0  0  0
   -0.8620    0.2391   -2.0387 H   0  0  0  0  0  0
   -0.2332    0.1706   -0.3575 H   0  0  0  0  0  0
    6.3281    1.8587   -1.2679 H   0  0  0  0  0  0
    6.8193   -0.9721   -3.7340 H   0  0  0  0  0  0
    7.7756    0.0108   -2.5738 H   0  0  0  0  0  0
    8.6139    2.2054   -3.1896 H   0  0  0  0  0  0
    9.1095    3.8390   -4.9914 H   0  0  0  0  0  0
    5.9610    0.0819   -5.8520 H   0  0  0  0  0  0
    1.5832    1.0382   -0.5758 H   0  0  0  0  0  0
    0.6254   -1.9828   -3.0942 H   0  0  0  0  0  0
  1  6  2  0  0  0
  1 32  1  0  0  0
  1  2  1  0  0  0
  2 33  1  0  0  0
  2  3  2  0  0  0
  3 34  1  0  0  0
  3  4  1  0  0  0
  4  5  2  0  0  0
  4 11  1  0  0  0
  5  7  1  0  0  0
  5  6  1  0  0  0
  6 35  1  0  0  0
  7  8  2  0  0  0
  7  9  1  0  0  0
  9 10  2  0  0  0
 10 11  1  0  0  0
 10 12  1  0  0  0
 11 31  1  0  0  0
 12 13  1  0  0  0
 12 36  1  0  0  0
 12 37  1  0  0  0
 13 38  1  0  0  0
 13 39  1  0  0  0
 13 14  1  0  0  0
 14 16  1  0  0  0
 14 15  2  0  0  0
 15 47  1  0  0  0
 16 17  1  0  0  0
 16 46  1  0  0  0
 17 21  1  0  0  0
 17 18  2  0  0  0
 18 19  1  0  0  0
 19 40  1  0  0  0
 19 20  2  0  0  0
 20 22  1  0  0  0
 20 21  1  0  0  0
 22 23  1  0  0  0
 22 41  1  0  0  0
 22 42  1  0  0  0
 23 28  1  0  0  0
 23 24  2  0  0  0
 24 25  1  0  0  0
 24 43  1  0  0  0
 25 26  2  0  0  0
 25 44  1  0  0  0
 26 27  1  0  0  0
 26 30  1  0  0  0
 27 28  2  0  0  0
 27 29  1  0  0  0
 28 45  1  0  0  0
M  CHG  1  15   1
M  END
> <s_m_source_file>
SM18.smi

> <i_m_source_file_index>
1

> <i_lp_mmshare_version>
38013

> <i_f3d_flags>
0

> <s_lp_Force_Field>
OPLS_2005

> <r_lp_Energy>
17.4490160392642

> <b_lp_Chiralities_Consistent>
1

> <s_lp_Variant>
SM18-1

> <r_epik_Ionization_Penalty>
  6.9170

> <r_epik_Ionization_Penalty_Charging>
  3.4361

> <r_epik_Ionization_Penalty_Neutral>
  3.4809

> <r_epik_State_Penalty>
  6.2936

> <r_epik_Charging_Adjusted_Penalty>
9.72975715807353

> <i_epik_Tot_Q>
1

> <i_epik_Tot_abs_Q>
1

$$$$
SM18
                    3D
 Structure written by MMmdl.
 46 49  0  0  1  0            999 V2000
   -7.4510    0.4506    0.0358 C   0  0  0  0  0  0
   -7.0468    0.6829   -1.2944 C   0  0  0  0  0  0
   -5.7255    0.3991   -1.6913 C   0  0  0  0  0  0
   -4.8134   -0.1080   -0.7463 C   0  0  0  0  0  0
   -5.2100   -0.3531    0.5880 C   0  0  0  0  0  0
   -6.5375   -0.0660    0.9771 C   0  0  0  0  0  0
   -4.1864   -0.9106    1.5628 C   0  0  0  0  0  0
   -4.5317   -1.1175    2.7255 O   0  0  0  0  0  0
   -2.8849   -1.1692    1.1056 N   0  0  0  0  0  0
   -2.6067   -0.9229   -0.1417 C   0  0  0  0  0  0
   -3.4966   -0.4165   -1.0786 N   0  0  0  0  0  0
   -1.2153   -1.1853   -0.6915 C   0  0  0  0  0  0
   -0.4953    0.1009   -1.1460 C   0  0  0  0  0  0
    0.9046   -0.1709   -1.7043 C   0  0  0  0  0  0
    1.0807   -1.1130   -2.4773 O   0  0  0  0  0  0
    1.8702    0.6755   -1.2993 N   0  0  0  0  0  0
    3.2404    0.6900   -1.6710 C   0  0  0  0  0  0
    4.1448    1.5480   -1.1869 N   0  0  0  0  0  0
    5.4198    1.3117   -1.7051 C   0  0  0  0  0  0
    5.4715    0.2774   -2.6082 C   0  0  0  0  0  0
    3.8998   -0.4486   -2.8346 S   0  0  0  0  0  0
    6.6692   -0.2257   -3.3445 C   0  0  0  0  0  0
    7.1027    0.7302   -4.4395 C   0  0  0  0  0  0
    8.1285    1.6684   -4.1987 C   0  0  0  0  0  0
    8.5236    2.5604   -5.2147 C   0  0  0  0  0  0
    7.8948    2.5181   -6.4743 C   0  0  0  0  0  0
    6.8694    1.5832   -6.7177 C   0  0  0  0  0  0
    6.4743    0.6908   -5.7019 C   0  0  0  0  0  0
    6.2618    1.5416   -7.9273 F   0  0  0  0  0  0
    8.2760    3.3771   -7.4494 F   0  0  0  0  0  0
   -2.1083   -1.5704    1.7735 H   0  0  0  0  0  0
   -8.3907    0.6540    0.3106 H   0  0  0  0  0  0
   -7.7000    1.0496   -1.9569 H   0  0  0  0  0  0
   -5.4406    0.5645   -2.6355 H   0  0  0  0  0  0
   -6.8293   -0.2290    1.9196 H   0  0  0  0  0  0
   -1.3172   -1.8700   -1.5464 H   0  0  0  0  0  0
   -0.6290   -1.6732    0.1011 H   0  0  0  0  0  0
   -1.0836    0.5909   -1.9358 H   0  0  0  0  0  0
   -0.3898    0.7840   -0.2902 H   0  0  0  0  0  0
    6.2516    1.8171   -1.4755 H   0  0  0  0  0  0
    6.4169   -1.2004   -3.7874 H   0  0  0  0  0  0
    7.4894   -0.3523   -2.6224 H   0  0  0  0  0  0
    8.6127    1.7088   -3.2339 H   0  0  0  0  0  0
    9.3087    3.2779   -5.0271 H   0  0  0  0  0  0
    5.6853   -0.0220   -5.8923 H   0  0  0  0  0  0
    1.4839    1.4253   -0.5932 H   0  0  0  0  0  0
  1  6  2  0  0  0
  1 32  1  0  0  0
  1  2  1  0  0  0
  2 33  1  0  0  0
  2  3  2  0  0  0
  3 34  1  0  0  0
  3  4  1  0  0  0
  4  5  2  0  0  0
  4 11  1  0  0  0
  5  7  1  0  0  0
  5  6  1  0  0  0
  6 35  1  0  0  0
  7  8  2  0  0  0
  7  9  1  0  0  0
  9 10  1  0  0  0
  9 31  1  0  0  0
 10 11  2  0  0  0
 10 12  1  0  0  0
 12 13  1  0  0  0
 12 36  1  0  0  0
 12 37  1  0  0  0
 13 38  1  0  0  0
 13 39  1  0  0  0
 13 14  1  0  0  0
 14 16  1  0  0  0
 14 15  2  0  0  0
 16 17  1  0  0  0
 16 46  1  0  0  0
 17 21  1  0  0  0
 17 18  2  0  0  0
 18 19  1  0  0  0
 19 40  1  0  0  0
 19 20  2  0  0  0
 20 22  1  0  0  0
 20 21  1  0  0  0
 22 23  1  0  0  0
 22 41  1  0  0  0
 22 42  1  0  0  0
 23 28  1  0  0  0
 23 24  2  0  0  0
 24 25  1  0  0  0
 24 43  1  0  0  0
 25 26  2  0  0  0
 25 44  1  0  0  0
 26 27  1  0  0  0
 26 30  1  0  0  0
 27 28  2  0  0  0
 27 29  1  0  0  0
 28 45  1  0  0  0
M  END
> <s_m_source_file>
SM18.smi

> <i_m_source_file_index>
1

> <i_lp_mmshare_version>
38013

> <i_f3d_flags>
0

> <s_lp_Force_Field>
OPLS_2005

> <r_lp_Energy>
13.8546902704395

> <b_lp_Chiralities_Consistent>
1

> <s_lp_Variant>
SM18-2

> <r_lp_tautomer_probability>
0.883054493714579

> <r_epik_Ionization_Penalty>
  0.6135

> <r_epik_Ionization_Penalty_Charging>
  0.0000

> <r_epik_Ionization_Penalty_Neutral>
  0.6134

> <r_epik_State_Penalty>
  0.7685

> <r_epik_Charging_Adjusted_Penalty>
0.76852153159551

> <i_epik_Tot_Q>
0

> <i_epik_Tot_abs_Q>
0

$$$$
SM18
                    3D
 Structure written by MMmdl.
 47 50  0  0  1  0            999 V2000
   -7.4510    0.4506    0.0358 C   0  0  0  0  0  0
   -7.0468    0.6829   -1.2944 C   0  0  0  0  0  0
   -5.7255    0.3991   -1.6913 C   0  0  0  0  0  0
   -4.8134   -0.1080   -0.7463 C   0  0  0  0  0  0
   -5.2100   -0.3531    0.5880 C   0  0  0  0  0  0
   -6.5375   -0.0660    0.9771 C   0  0  0  0  0  0
   -4.1864   -0.9106    1.5628 C   0  0  0  0  0  0
   -4.5317   -1.1175    2.7255 O   0  0  0  0  0  0
   -2.8849   -1.1692    1.1056 N   0  0  0  0  0  0
   -2.6067   -0.9229   -0.1417 C   0  0  0  0  0  0
   -3.4966   -0.4165   -1.0786 N   0  0  0  0  0  0
   -1.2153   -1.1853   -0.6915 C   0  0  0  0  0  0
   -0.4953    0.1009   -1.1460 C   0  0  0  0  0  0
    0.9046   -0.1709   -1.7043 C   0  0  0  0  0  0
    1.0807   -1.1130   -2.4773 O   0  0  0  0  0  0
    1.8702    0.6755   -1.2993 N   0  0  0  0  0  0
    3.2404    0.6900   -1.6710 C   0  0  0  0  0  0
    4.1448    1.5480   -1.1869 N   0  3  0  0  0  0
    5.4198    1.3117   -1.7051 C   0  0  0  0  0  0
    5.4715    0.2774   -2.6082 C   0  0  0  0  0  0
    3.8998   -0.4486   -2.8346 S   0  0  0  0  0  0
    6.6692   -0.2257   -3.3445 C   0  0  0  0  0  0
    7.1027    0.7302   -4.4395 C   0  0  0  0  0  0
    8.1285    1.6684   -4.1987 C   0  0  0  0  0  0
    8.5236    2.5604   -5.2147 C   0  0  0  0  0  0
    7.8948    2.5181   -6.4743 C   0  0  0  0  0  0
    6.8694    1.5832   -6.7177 C   0  0  0  0  0  0
    6.4743    0.6908   -5.7019 C   0  0  0  0  0  0
    6.2618    1.5416   -7.9273 F   0  0  0  0  0  0
    8.2760    3.3771   -7.4494 F   0  0  0  0  0  0
   -2.1083   -1.5704    1.7735 H   0  0  0  0  0  0
   -8.3907    0.6540    0.3106 H   0  0  0  0  0  0
   -7.7000    1.0496   -1.9569 H   0  0  0  0  0  0
   -5.4406    0.5645   -2.6355 H   0  0  0  0  0  0
   -6.8293   -0.2290    1.9196 H   0  0  0  0  0  0
   -1.3172   -1.8700   -1.5464 H   0  0  0  0  0  0
   -0.6290   -1.6732    0.1011 H   0  0  0  0  0  0
   -1.0836    0.5909   -1.9358 H   0  0  0  0  0  0
   -0.3898    0.7840   -0.2902 H   0  0  0  0  0  0
    6.2516    1.8171   -1.4755 H   0  0  0  0  0  0
    6.4169   -1.2004   -3.7874 H   0  0  0  0  0  0
    7.4894   -0.3523   -2.6224 H   0  0  0  0  0  0
    8.6127    1.7088   -3.2339 H   0  0  0  0  0  0
    9.3087    3.2779   -5.0271 H   0  0  0  0  0  0
    5.6853   -0.0220   -5.8923 H   0  0  0  0  0  0
    1.4839    1.4253   -0.5932 H   0  0  0  0  0  0
    3.9860    2.3655   -0.4681 H   0  0  0  0  0  0
  1  6  2  0  0  0
  1 32  1  0  0  0
  1  2  1  0  0  0
  2 33  1  0  0  0
  2  3  2  0  0  0
  3 34  1  0  0  0
  3  4  1  0  0  0
  4  5  2  0  0  0
  4 11  1  0  0  0
  5  7  1  0  0  0
  5  6  1  0  0  0
  6 35  1  0  0  0
  7  8  2  0  0  0
  7  9  1  0  0  0
  9 10  1  0  0  0
  9 31  1  0  0  0
 10 11  2  0  0  0
 10 12  1  0  0  0
 12 13  1  0  0  0
 12 36  1  0  0  0
 12 37  1  0  0  0
 13 38  1  0  0  0
 13 39  1  0  0  0
 13 14  1  0  0  0
 14 16  1  0  0  0
 14 15  2  0  0  0
 16 17  1  0  0  0
 16 46  1  0  0  0
 17 21  1  0  0  0
 17 18  2  0  0  0
 18 19  1  0  0  0
 18 47  1  0  0  0
 19 40  1  0  0  0
 19 20  2  0  0  0
 20 22  1  0  0  0
 20 21  1  0  0  0
 22 23  1  0  0  0
 22 41  1  0  0  0
 22 42  1  0  0  0
 23 28  1  0  0  0
 23 24  2  0  0  0
 24 25  1  0  0  0
 24 43  1  0  0  0
 25 26  2  0  0  0
 25 44  1  0  0  0
 26 27  1  0  0  0
 26 30  1  0  0  0
 27 28  2  0  0  0
 27 29  1  0  0  0
 28 45  1  0  0  0
M  CHG  1  18   1
M  END
> <s_m_source_file>
SM18.smi

> <i_m_source_file_index>
1

> <i_lp_mmshare_version>
38013

> <i_f3d_flags>
0

> <s_lp_Force_Field>
OPLS_2005

> <r_lp_Energy>
13.8546902704395

> <b_lp_Chiralities_Consistent>
1

> <s_lp_Variant>
SM18-2

> <r_lp_tautomer_probability>
0.883938

> <r_epik_Ionization_Penalty>
  0.4287

> <r_epik_Ionization_Penalty_Charging>
  0.3034

> <r_epik_Ionization_Penalty_Neutral>
  0.1252

> <r_epik_State_Penalty>
  0.8091

> <r_epik_Charging_Adjusted_Penalty>
1.11254775157921

> <i_epik_Tot_Q>
1

> <i_epik_Tot_abs_Q>
1

$$$$
SM18
                    3D
 Structure written by MMmdl.
 47 50  0  0  1  0            999 V2000
   -7.4510    0.4506    0.0358 C   0  0  0  0  0  0
   -7.0468    0.6829   -1.2944 C   0  0  0  0  0  0
   -5.7255    0.3991   -1.6913 C   0  0  0  0  0  0
   -4.8134   -0.1080   -0.7463 C   0  0  0  0  0  0
   -5.2100   -0.3531    0.5880 C   0  0  0  0  0  0
   -6.5375   -0.0660    0.9771 C   0  0  0  0  0  0
   -4.1864   -0.9106    1.5628 C   0  0  0  0  0  0
   -4.5317   -1.1175    2.7255 O   0  0  0  0  0  0
   -2.8849   -1.1692    1.1056 N   0  3  0  0  0  0
   -2.6067   -0.9229   -0.1417 C   0  0  0  0  0  0
   -3.4966   -0.4165   -1.0786 N   0  0  0  0  0  0
   -1.2153   -1.1853   -0.6915 C   0  0  0  0  0  0
   -0.4953    0.1009   -1.1460 C   0  0  0  0  0  0
    0.9046   -0.1709   -1.7043 C   0  0  0  0  0  0
    1.0807   -1.1130   -2.4773 O   0  0  0  0  0  0
    1.8702    0.6755   -1.2993 N   0  0  0  0  0  0
    3.2404    0.6900   -1.6710 C   0  0  0  0  0  0
    4.1448    1.5480   -1.1869 N   0  0  0  0  0  0
    5.4198    1.3117   -1.7051 C   0  0  0  0  0  0
    5.4715    0.2774   -2.6082 C   0  0  0  0  0  0
    3.8998   -0.4486   -2.8346 S   0  0  0  0  0  0
    6.6692   -0.2257   -3.3445 C   0  0  0  0  0  0
    7.1027    0.7302   -4.4395 C   0  0  0  0  0  0
    8.1285    1.6684   -4.1987 C   0  0  0  0  0  0
    8.5236    2.5604   -5.2147 C   0  0  0  0  0  0
    7.8948    2.5181   -6.4743 C   0  0  0  0  0  0
    6.8694    1.5832   -6.7177 C   0  0  0  0  0  0
    6.4743    0.6908   -5.7019 C   0  0  0  0  0  0
    6.2618    1.5416   -7.9273 F   0  0  0  0  0  0
    8.2760    3.3771   -7.4494 F   0  0  0  0  0  0
   -2.1083   -1.5704    1.7735 H   0  0  0  0  0  0
   -8.3907    0.6540    0.3106 H   0  0  0  0  0  0
   -7.7000    1.0496   -1.9569 H   0  0  0  0  0  0
   -5.4406    0.5645   -2.6355 H   0  0  0  0  0  0
   -6.8293   -0.2290    1.9196 H   0  0  0  0  0  0
   -1.3172   -1.8700   -1.5464 H   0  0  0  0  0  0
   -0.6290   -1.6732    0.1011 H   0  0  0  0  0  0
   -1.0836    0.5909   -1.9358 H   0  0  0  0  0  0
   -0.3898    0.7840   -0.2902 H   0  0  0  0  0  0
    6.2516    1.8171   -1.4755 H   0  0  0  0  0  0
    6.4169   -1.2004   -3.7874 H   0  0  0  0  0  0
    7.4894   -0.3523   -2.6224 H   0  0  0  0  0  0
    8.6127    1.7088   -3.2339 H   0  0  0  0  0  0
    9.3087    3.2779   -5.0271 H   0  0  0  0  0  0
    5.6853   -0.0220   -5.8923 H   0  0  0  0  0  0
    1.4839    1.4253   -0.5932 H   0  0  0  0  0  0
   -3.1376   -0.2601   -2.1065 H   0  0  0  0  0  0
  1  6  1  0  0  0
  1 32  1  0  0  0
  1  2  2  0  0  0
  2 33  1  0  0  0
  2  3  1  0  0  0
  3 34  1  0  0  0
  3  4  2  0  0  0
  4  5  1  0  0  0
  4 11  1  0  0  0
  5  7  1  0  0  0
  5  6  2  0  0  0
  6 35  1  0  0  0
  7  8  2  0  0  0
  7  9  1  0  0  0
  9 10  2  0  0  0
  9 31  1  0  0  0
 10 11  1  0  0  0
 10 12  1  0  0  0
 11 47  1  0  0  0
 12 13  1  0  0  0
 12 36  1  0  0  0
 12 37  1  0  0  0
 13 38  1  0  0  0
 13 39  1  0  0  0
 13 14  1  0  0  0
 14 16  1  0  0  0
 14 15  2  0  0  0
 16 17  1  0  0  0
 16 46  1  0  0  0
 17 21  1  0  0  0
 17 18  2  0  0  0
 18 19  1  0  0  0
 19 40  1  0  0  0
 19 20  2  0  0  0
 20 22  1  0  0  0
 20 21  1  0  0  0
 22 23  1  0  0  0
 22 41  1  0  0  0
 22 42  1  0  0  0
 23 28  1  0  0  0
 23 24  2  0  0  0
 24 25  1  0  0  0
 24 43  1  0  0  0
 25 26  2  0  0  0
 25 44  1  0  0  0
 26 27  1  0  0  0
 26 30  1  0  0  0
 27 28  2  0  0  0
 27 29  1  0  0  0
 28 45  1  0  0  0
M  CHG  1   9   1
M  END
> <s_m_source_file>
SM18.smi

> <i_m_source_file_index>
1

> <i_lp_mmshare_version>
38013

> <i_f3d_flags>
0

> <s_lp_Force_Field>
OPLS_2005

> <r_lp_Energy>
13.8546902704395

> <b_lp_Chiralities_Consistent>
1

> <s_lp_Variant>
SM18-2

> <r_epik_Ionization_Penalty>
  2.2440

> <r_epik_Ionization_Penalty_Charging>
  1.7004

> <r_epik_Ionization_Penalty_Neutral>
  0.5436

> <r_epik_State_Penalty>
  0.9748

> <r_epik_Charging_Adjusted_Penalty>
2.67519610487414

> <i_epik_Tot_Q>
1

> <i_epik_Tot_abs_Q>
1

$$$$
SM18
                    3D
 Structure written by MMmdl.
 48 51  0  0  1  0            999 V2000
   -7.4510    0.4506    0.0358 C   0  0  0  0  0  0
   -7.0468    0.6829   -1.2944 C   0  0  0  0  0  0
   -5.7255    0.3991   -1.6913 C   0  0  0  0  0  0
   -4.8134   -0.1080   -0.7463 C   0  0  0  0  0  0
   -5.2100   -0.3531    0.5880 C   0  0  0  0  0  0
   -6.5375   -0.0660    0.9771 C   0  0  0  0  0  0
   -4.1864   -0.9106    1.5628 C   0  0  0  0  0  0
   -4.5317   -1.1175    2.7255 O   0  0  0  0  0  0
   -2.8849   -1.1692    1.1056 N   0  0  0  0  0  0
   -2.6067   -0.9229   -0.1417 C   0  0  0  0  0  0
   -3.4966   -0.4165   -1.0786 N   0  0  0  0  0  0
   -1.2153   -1.1853   -0.6915 C   0  0  0  0  0  0
   -0.4953    0.1009   -1.1460 C   0  0  0  0  0  0
    0.9046   -0.1709   -1.7043 C   0  0  0  0  0  0
    1.0807   -1.1130   -2.4773 O   0  0  0  0  0  0
    1.8702    0.6755   -1.2993 N   0  0  0  0  0  0
    3.2404    0.6900   -1.6710 C   0  0  0  0  0  0
    4.1448    1.5480   -1.1869 N   0  2  0  0  0  0
    5.4198    1.3117   -1.7051 C   0  0  0  0  0  0
    5.4715    0.2774   -2.6082 C   0  0  0  0  0  0
    3.8998   -0.4486   -2.8346 S   0  0  0  0  0  0
    6.6692   -0.2257   -3.3445 C   0  0  0  0  0  0
    7.1027    0.7302   -4.4395 C   0  0  0  0  0  0
    8.1285    1.6684   -4.1987 C   0  0  0  0  0  0
    8.5236    2.5604   -5.2147 C   0  0  0  0  0  0
    7.8948    2.5181   -6.4743 C   0  0  0  0  0  0
    6.8694    1.5832   -6.7177 C   0  0  0  0  0  0
    6.4743    0.6908   -5.7019 C   0  0  0  0  0  0
    6.2618    1.5416   -7.9273 F   0  0  0  0  0  0
    8.2760    3.3771   -7.4494 F   0  0  0  0  0  0
   -2.1083   -1.5704    1.7735 H   0  0  0  0  0  0
   -8.3907    0.6540    0.3106 H   0  0  0  0  0  0
   -7.7000    1.0496   -1.9569 H   0  0  0  0  0  0
   -5.4406    0.5645   -2.6355 H   0  0  0  0  0  0
   -6.8293   -0.2290    1.9196 H   0  0  0  0  0  0
   -1.3172   -1.8700   -1.5464 H   0  0  0  0  0  0
   -0.6290   -1.6732    0.1011 H   0  0  0  0  0  0
   -1.0836    0.5909   -1.9358 H   0  0  0  0  0  0
   -0.3898    0.7840   -0.2902 H   0  0  0  0  0  0
    6.3348    1.8676   -1.4525 H   0  0  0  0  0  0
    6.4169   -1.2004   -3.7874 H   0  0  0  0  0  0
    7.4894   -0.3523   -2.6224 H   0  0  0  0  0  0
    8.6127    1.7088   -3.2339 H   0  0  0  0  0  0
    9.3087    3.2779   -5.0271 H   0  0  0  0  0  0
    5.6853   -0.0220   -5.8923 H   0  0  0  0  0  0
    1.4839    1.4253   -0.5932 H   0  0  0  0  0  0
    4.0004    2.2911   -0.5335 H   0  0  0  0  0  0
    3.8534    1.0896   -0.3473 H   0  0  0  0  0  0
  1  6  2  0  0  0
  1 32  1  0  0  0
  1  2  1  0  0  0
  2 33  1  0  0  0
  2  3  2  0  0  0
  3 34  1  0  0  0
  3  4  1  0  0  0
  4  5  2  0  0  0
  4 11  1  0  0  0
  5  7  1  0  0  0
  5  6  1  0  0  0
  6 35  1  0  0  0
  7  8  2  0  0  0
  7  9  1  0  0  0
  9 10  1  0  0  0
  9 31  1  0  0  0
 10 11  2  0  0  0
 10 12  1  0  0  0
 12 13  1  0  0  0
 12 36  1  0  0  0
 12 37  1  0  0  0
 13 38  1  0  0  0
 13 39  1  0  0  0
 13 14  1  0  0  0
 14 16  1  0  0  0
 14 15  2  0  0  0
 16 17  1  0  0  0
 16 46  1  0  0  0
 17 21  1  0  0  0
 17 18  2  0  0  0
 18 19  1  0  0  0
 18 47  1  0  0  0
 18 48  1  0  0  0
 19 40  1  0  0  0
 19 20  2  0  0  0
 20 22  1  0  0  0
 20 21  1  0  0  0
 22 23  1  0  0  0
 22 41  1  0  0  0
 22 42  1  0  0  0
 23 28  1  0  0  0
 23 24  2  0  0  0
 24 25  1  0  0  0
 24 43  1  0  0  0
 25 26  2  0  0  0
 25 44  1  0  0  0
 26 27  1  0  0  0
 26 30  1  0  0  0
 27 28  2  0  0  0
 27 29  1  0  0  0
 28 45  1  0  0  0
M  CHG  1  18   2
M  END
> <s_m_source_file>
SM18.smi

> <i_m_source_file_index>
1

> <i_lp_mmshare_version>
38013

> <i_f3d_flags>
0

> <s_lp_Force_Field>
OPLS_2005

> <r_lp_Energy>
13.8546902704395

> <b_lp_Chiralities_Consistent>
1

> <s_lp_Variant>
SM18-2

> <r_epik_Ionization_Penalty>
 17.4179

> <r_epik_Ionization_Penalty_Charging>
 17.3119

> <r_epik_Ionization_Penalty_Neutral>
  0.1059

> <r_epik_State_Penalty>
  1.1662

> <r_epik_Charging_Adjusted_Penalty>
18.4781364020161

> <i_epik_Tot_Q>
2

> <i_epik_Tot_abs_Q>
2

> <s_epik_Chemistry_Notes>
This compound has an imine and may undergo hydrolysis.

$$$$
SM18
                    3D
 Structure written by MMmdl.
 46 49  0  0  1  0            999 V2000
   -7.4436    0.4756    0.0423 C   0  0  0  0  0  0
   -7.0419    0.6994   -1.2902 C   0  0  0  0  0  0
   -5.7230    0.4076   -1.6891 C   0  0  0  0  0  0
   -4.8133   -0.1080   -0.7463 C   0  0  0  0  0  0
   -5.2049   -0.3361    0.5924 C   0  0  0  0  0  0
   -6.5300   -0.0407    0.9837 C   0  0  0  0  0  0
   -4.1815   -0.8941    1.5671 C   0  0  0  0  0  0
   -4.5246   -1.0935    2.7318 O   0  0  0  0  0  0
   -2.8823   -1.1607    1.1078 N   0  0  0  0  0  0
   -2.6064   -0.9219   -0.1414 C   0  0  0  0  0  0
   -3.4964   -0.4160   -1.0784 N   0  0  0  0  0  0
   -1.2148   -1.1839   -0.6912 C   0  0  0  0  0  0
   -0.4953    0.1026   -1.1457 C   0  0  0  0  0  0
    0.9047   -0.1687   -1.7039 C   0  0  0  0  0  0
    1.0813   -1.1109   -2.4768 O   0  0  0  0  0  0
    1.8700    0.6781   -1.2989 N   0  0  0  0  0  0
    3.2401    0.6931   -1.6705 C   0  0  0  0  0  0
    4.1442    1.5515   -1.1865 N   0  0  0  0  0  0
    5.4193    1.3157   -1.7046 C   0  0  0  0  0  0
    5.4715    0.2812   -2.6075 C   0  0  0  0  0  0
    3.9001   -0.4454   -2.8340 S   0  0  0  0  0  0
    6.6695   -0.2214   -3.3437 C   0  0  0  0  0  0
    7.1026    0.7345   -4.4388 C   0  0  0  0  0  0
    8.1281    1.6731   -4.1981 C   0  0  0  0  0  0
    8.5229    2.5651   -5.2142 C   0  0  0  0  0  0
    7.8942    2.5224   -6.4738 C   0  0  0  0  0  0
    6.8691    1.5871   -6.7171 C   0  0  0  0  0  0
    6.4743    0.6947   -5.7012 C   0  0  0  0  0  0
    6.2616    1.5451   -7.9267 F   0  0  0  0  0  0
    8.2751    3.3815   -7.4489 F   0  0  0  0  0  0
   -3.1375   -0.2595   -2.1064 H   0  0  0  0  0  0
   -8.3816    0.6849    0.3186 H   0  0  0  0  0  0
   -7.6952    1.0658   -1.9527 H   0  0  0  0  0  0
   -5.4399    0.5668   -2.6349 H   0  0  0  0  0  0
   -6.8200   -0.1978    1.9278 H   0  0  0  0  0  0
   -0.5963   -1.6560    0.0863 H   0  0  0  0  0  0
   -1.2843   -1.8533   -1.5612 H   0  0  0  0  0  0
   -1.0838    0.5922   -1.9356 H   0  0  0  0  0  0
   -0.3901    0.7858   -0.2900 H   0  0  0  0  0  0
    6.2509    1.8214   -1.4750 H   0  0  0  0  0  0
    6.4176   -1.1964   -3.7866 H   0  0  0  0  0  0
    7.4896   -0.3477   -2.6216 H   0  0  0  0  0  0
    8.6122    1.7138   -3.2332 H   0  0  0  0  0  0
    9.3076    3.2830   -5.0266 H   0  0  0  0  0  0
    5.6856   -0.0184   -5.8916 H   0  0  0  0  0  0
    1.4833    1.4278   -0.5929 H   0  0  0  0  0  0
  1  6  2  0  0  0
  1 32  1  0  0  0
  1  2  1  0  0  0
  2 33  1  0  0  0
  2  3  2  0  0  0
  3 34  1  0  0  0
  3  4  1  0  0  0
  4  5  2  0  0  0
  4 11  1  0  0  0
  5  7  1  0  0  0
  5  6  1  0  0  0
  6 35  1  0  0  0
  7  8  2  0  0  0
  7  9  1  0  0  0
  9 10  2  0  0  0
 10 11  1  0  0  0
 10 12  1  0  0  0
 11 31  1  0  0  0
 12 13  1  0  0  0
 12 36  1  0  0  0
 12 37  1  0  0  0
 13 38  1  0  0  0
 13 39  1  0  0  0
 13 14  1  0  0  0
 14 16  1  0  0  0
 14 15  2  0  0  0
 16 17  1  0  0  0
 16 46  1  0  0  0
 17 21  1  0  0  0
 17 18  2  0  0  0
 18 19  1  0  0  0
 19 40  1  0  0  0
 19 20  2  0  0  0
 20 22  1  0  0  0
 20 21  1  0  0  0
 22 23  1  0  0  0
 22 41  1  0  0  0
 22 42  1  0  0  0
 23 28  1  0  0  0
 23 24  2  0  0  0
 24 25  1  0  0  0
 24 43  1  0  0  0
 25 26  2  0  0  0
 25 44  1  0  0  0
 26 27  1  0  0  0
 26 30  1  0  0  0
 27 28  2  0  0  0
 27 29  1  0  0  0
 28 45  1  0  0  0
M  END
> <s_m_source_file>
SM18.smi

> <i_m_source_file_index>
1

> <i_lp_mmshare_version>
38013

> <i_f3d_flags>
0

> <s_lp_Force_Field>
OPLS_2005

> <r_lp_Energy>
13.8546902704395

> <b_lp_Chiralities_Consistent>
1

> <s_lp_Variant>
SM18-2

> <r_lp_tautomer_probability>
0.115935005679211

> <r_epik_Ionization_Penalty>
  0.9659

> <r_epik_Ionization_Penalty_Charging>
  0.0000

> <r_epik_Ionization_Penalty_Neutral>
  0.9659

> <r_epik_State_Penalty>
  1.6005

> <r_epik_Charging_Adjusted_Penalty>
1.60050719201014

> <i_epik_Tot_Q>
0

> <i_epik_Tot_abs_Q>
0

$$$$
SM18
                    3D
 Structure written by MMmdl.
 47 50  0  0  1  0            999 V2000
   -7.4436    0.4756    0.0423 C   0  0  0  0  0  0
   -7.0419    0.6994   -1.2902 C   0  0  0  0  0  0
   -5.7230    0.4076   -1.6891 C   0  0  0  0  0  0
   -4.8133   -0.1080   -0.7463 C   0  0  0  0  0  0
   -5.2049   -0.3361    0.5924 C   0  0  0  0  0  0
   -6.5300   -0.0407    0.9837 C   0  0  0  0  0  0
   -4.1815   -0.8941    1.5671 C   0  0  0  0  0  0
   -4.5246   -1.0935    2.7318 O   0  0  0  0  0  0
   -2.8823   -1.1607    1.1078 N   0  0  0  0  0  0
   -2.6064   -0.9219   -0.1414 C   0  0  0  0  0  0
   -3.4964   -0.4160   -1.0784 N   0  0  0  0  0  0
   -1.2148   -1.1839   -0.6912 C   0  0  0  0  0  0
   -0.4953    0.1026   -1.1457 C   0  0  0  0  0  0
    0.9047   -0.1687   -1.7039 C   0  0  0  0  0  0
    1.0813   -1.1109   -2.4768 O   0  0  0  0  0  0
    1.8700    0.6781   -1.2989 N   0  0  0  0  0  0
    3.2401    0.6931   -1.6705 C   0  0  0  0  0  0
    4.1442    1.5515   -1.1865 N   0  3  0  0  0  0
    5.4193    1.3157   -1.7046 C   0  0  0  0  0  0
    5.4715    0.2812   -2.6075 C   0  0  0  0  0  0
    3.9001   -0.4454   -2.8340 S   0  0  0  0  0  0
    6.6695   -0.2214   -3.3437 C   0  0  0  0  0  0
    7.1026    0.7345   -4.4388 C   0  0  0  0  0  0
    8.1281    1.6731   -4.1981 C   0  0  0  0  0  0
    8.5229    2.5651   -5.2142 C   0  0  0  0  0  0
    7.8942    2.5224   -6.4738 C   0  0  0  0  0  0
    6.8691    1.5871   -6.7171 C   0  0  0  0  0  0
    6.4743    0.6947   -5.7012 C   0  0  0  0  0  0
    6.2616    1.5451   -7.9267 F   0  0  0  0  0  0
    8.2751    3.3815   -7.4489 F   0  0  0  0  0  0
   -3.1375   -0.2595   -2.1064 H   0  0  0  0  0  0
   -8.3816    0.6849    0.3186 H   0  0  0  0  0  0
   -7.6952    1.0658   -1.9527 H   0  0  0  0  0  0
   -5.4399    0.5668   -2.6349 H   0  0  0  0  0  0
   -6.8200   -0.1978    1.9278 H   0  0  0  0  0  0
   -0.5963   -1.6560    0.0863 H   0  0  0  0  0  0
   -1.2843   -1.8533   -1.5612 H   0  0  0  0  0  0
   -1.0838    0.5922   -1.9356 H   0  0  0  0  0  0
   -0.3901    0.7858   -0.2900 H   0  0  0  0  0  0
    6.2509    1.8214   -1.4750 H   0  0  0  0  0  0
    6.4176   -1.1964   -3.7866 H   0  0  0  0  0  0
    7.4896   -0.3477   -2.6216 H   0  0  0  0  0  0
    8.6122    1.7138   -3.2332 H   0  0  0  0  0  0
    9.3076    3.2830   -5.0266 H   0  0  0  0  0  0
    5.6856   -0.0184   -5.8916 H   0  0  0  0  0  0
    1.4833    1.4278   -0.5929 H   0  0  0  0  0  0
    3.9850    2.3690   -0.4679 H   0  0  0  0  0  0
  1  6  2  0  0  0
  1 32  1  0  0  0
  1  2  1  0  0  0
  2 33  1  0  0  0
  2  3  2  0  0  0
  3 34  1  0  0  0
  3  4  1  0  0  0
  4  5  2  0  0  0
  4 11  1  0  0  0
  5  7  1  0  0  0
  5  6  1  0  0  0
  6 35  1  0  0  0
  7  8  2  0  0  0
  7  9  1  0  0  0
  9 10  2  0  0  0
 10 11  1  0  0  0
 10 12  1  0  0  0
 11 31  1  0  0  0
 12 13  1  0  0  0
 12 36  1  0  0  0
 12 37  1  0  0  0
 13 38  1  0  0  0
 13 39  1  0  0  0
 13 14  1  0  0  0
 14 16  1  0  0  0
 14 15  2  0  0  0
 16 17  1  0  0  0
 16 46  1  0  0  0
 17 21  1  0  0  0
 17 18  2  0  0  0
 18 19  1  0  0  0
 18 47  1  0  0  0
 19 40  1  0  0  0
 19 20  2  0  0  0
 20 22  1  0  0  0
 20 21  1  0  0  0
 22 23  1  0  0  0
 22 41  1  0  0  0
 22 42  1  0  0  0
 23 28  1  0  0  0
 23 24  2  0  0  0
 24 25  1  0  0  0
 24 43  1  0  0  0
 25 26  2  0  0  0
 25 44  1  0  0  0
 26 27  1  0  0  0
 26 30  1  0  0  0
 27 28  2  0  0  0
 27 29  1  0  0  0
 28 45  1  0  0  0
M  CHG  1  18   1
M  END
> <s_m_source_file>
SM18.smi

> <i_m_source_file_index>
1

> <i_lp_mmshare_version>
38013

> <i_f3d_flags>
0

> <s_lp_Force_Field>
OPLS_2005

> <r_lp_Energy>
13.8546902704395

> <b_lp_Chiralities_Consistent>
1

> <s_lp_Variant>
SM18-2

> <r_lp_tautomer_probability>
0.116051

> <r_epik_Ionization_Penalty>
  0.7675

> <r_epik_Ionization_Penalty_Charging>
  0.3034

> <r_epik_Ionization_Penalty_Neutral>
  0.4641

> <r_epik_State_Penalty>
  1.8467

> <r_epik_Charging_Adjusted_Penalty>
2.15014365084831

> <i_epik_Tot_Q>
1

> <i_epik_Tot_abs_Q>
1

$$$$
SM18
                    3D
 Structure written by MMmdl.
 48 51  0  0  1  0            999 V2000
   -7.4436    0.4756    0.0423 C   0  0  0  0  0  0
   -7.0419    0.6994   -1.2902 C   0  0  0  0  0  0
   -5.7230    0.4076   -1.6891 C   0  0  0  0  0  0
   -4.8133   -0.1080   -0.7463 C   0  0  0  0  0  0
   -5.2049   -0.3361    0.5924 C   0  0  0  0  0  0
   -6.5300   -0.0407    0.9837 C   0  0  0  0  0  0
   -4.1815   -0.8941    1.5671 C   0  0  0  0  0  0
   -4.5246   -1.0935    2.7318 O   0  0  0  0  0  0
   -2.8823   -1.1607    1.1078 N   0  0  0  0  0  0
   -2.6064   -0.9219   -0.1414 C   0  0  0  0  0  0
   -3.4964   -0.4160   -1.0784 N   0  0  0  0  0  0
   -1.2148   -1.1839   -0.6912 C   0  0  0  0  0  0
   -0.4953    0.1026   -1.1457 C   0  0  0  0  0  0
    0.9047   -0.1687   -1.7039 C   0  0  0  0  0  0
    1.0813   -1.1109   -2.4768 O   0  0  0  0  0  0
    1.8700    0.6781   -1.2989 N   0  0  0  0  0  0
    3.2401    0.6931   -1.6705 C   0  0  0  0  0  0
    4.1442    1.5515   -1.1865 N   0  2  0  0  0  0
    5.4193    1.3157   -1.7046 C   0  0  0  0  0  0
    5.4715    0.2812   -2.6075 C   0  0  0  0  0  0
    3.9001   -0.4454   -2.8340 S   0  0  0  0  0  0
    6.6695   -0.2214   -3.3437 C   0  0  0  0  0  0
    7.1026    0.7345   -4.4388 C   0  0  0  0  0  0
    8.1281    1.6731   -4.1981 C   0  0  0  0  0  0
    8.5229    2.5651   -5.2142 C   0  0  0  0  0  0
    7.8942    2.5224   -6.4738 C   0  0  0  0  0  0
    6.8691    1.5871   -6.7171 C   0  0  0  0  0  0
    6.4743    0.6947   -5.7012 C   0  0  0  0  0  0
    6.2616    1.5451   -7.9267 F   0  0  0  0  0  0
    8.2751    3.3815   -7.4489 F   0  0  0  0  0  0
   -3.1375   -0.2595   -2.1064 H   0  0  0  0  0  0
   -8.3816    0.6849    0.3186 H   0  0  0  0  0  0
   -7.6952    1.0658   -1.9527 H   0  0  0  0  0  0
   -5.4399    0.5668   -2.6349 H   0  0  0  0  0  0
   -6.8200   -0.1978    1.9278 H   0  0  0  0  0  0
   -0.5963   -1.6560    0.0863 H   0  0  0  0  0  0
   -1.2843   -1.8533   -1.5612 H   0  0  0  0  0  0
   -1.0838    0.5922   -1.9356 H   0  0  0  0  0  0
   -0.3901    0.7858   -0.2900 H   0  0  0  0  0  0
    6.3341    1.8720   -1.4520 H   0  0  0  0  0  0
    6.4176   -1.1964   -3.7866 H   0  0  0  0  0  0
    7.4896   -0.3477   -2.6216 H   0  0  0  0  0  0
    8.6122    1.7138   -3.2332 H   0  0  0  0  0  0
    9.3076    3.2830   -5.0266 H   0  0  0  0  0  0
    5.6856   -0.0184   -5.8916 H   0  0  0  0  0  0
    1.4833    1.4278   -0.5929 H   0  0  0  0  0  0
    3.9995    2.2947   -0.5332 H   0  0  0  0  0  0
    3.8529    1.0931   -0.3469 H   0  0  0  0  0  0
  1  6  2  0  0  0
  1 32  1  0  0  0
  1  2  1  0  0  0
  2 33  1  0  0  0
  2  3  2  0  0  0
  3 34  1  0  0  0
  3  4  1  0  0  0
  4  5  2  0  0  0
  4 11  1  0  0  0
  5  7  1  0  0  0
  5  6  1  0  0  0
  6 35  1  0  0  0
  7  8  2  0  0  0
  7  9  1  0  0  0
  9 10  2  0  0  0
 10 11  1  0  0  0
 10 12  1  0  0  0
 11 31  1  0  0  0
 12 13  1  0  0  0
 12 36  1  0  0  0
 12 37  1  0  0  0
 13 38  1  0  0  0
 13 39  1  0  0  0
 13 14  1  0  0  0
 14 16  1  0  0  0
 14 15  2  0  0  0
 16 17  1  0  0  0
 16 46  1  0  0  0
 17 21  1  0  0  0
 17 18  2  0  0  0
 18 19  1  0  0  0
 18 47  1  0  0  0
 18 48  1  0  0  0
 19 40  1  0  0  0
 19 20  2  0  0  0
 20 22  1  0  0  0
 20 21  1  0  0  0
 22 23  1  0  0  0
 22 41  1  0  0  0
 22 42  1  0  0  0
 23 28  1  0  0  0
 23 24  2  0  0  0
 24 25  1  0  0  0
 24 43  1  0  0  0
 25 26  2  0  0  0
 25 44  1  0  0  0
 26 27  1  0  0  0
 26 30  1  0  0  0
 27 28  2  0  0  0
 27 29  1  0  0  0
 28 45  1  0  0  0
M  CHG  1  18   2
M  END
> <s_m_source_file>
SM18.smi

> <i_m_source_file_index>
1

> <i_lp_mmshare_version>
38013

> <i_f3d_flags>
0

> <s_lp_Force_Field>
OPLS_2005

> <r_lp_Energy>
13.8546902704395

> <b_lp_Chiralities_Consistent>
1

> <s_lp_Variant>
SM18-2

> <r_epik_Ionization_Penalty>
 17.8482

> <r_epik_Ionization_Penalty_Charging>
 17.3119

> <r_epik_Ionization_Penalty_Neutral>
  0.5363

> <r_epik_State_Penalty>
  2.5789

> <r_epik_Charging_Adjusted_Penalty>
19.8908581717899

> <i_epik_Tot_Q>
2

> <i_epik_Tot_abs_Q>
2

> <s_epik_Chemistry_Notes>
This compound has an imine and may undergo hydrolysis.

$$$$
SM18
                    3D
 Structure written by MMmdl.
 48 51  0  0  1  0            999 V2000
   -7.4510    0.4506    0.0358 C   0  0  0  0  0  0
   -7.0468    0.6829   -1.2944 C   0  0  0  0  0  0
   -5.7255    0.3991   -1.6913 C   0  0  0  0  0  0
   -4.8134   -0.1080   -0.7463 C   0  0  0  0  0  0
   -5.2100   -0.3531    0.5880 C   0  0  0  0  0  0
   -6.5375   -0.0660    0.9771 C   0  0  0  0  0  0
   -4.1864   -0.9106    1.5628 C   0  0  0  0  0  0
   -4.5317   -1.1175    2.7255 O   0  0  0  0  0  0
   -2.8849   -1.1692    1.1056 N   0  3  0  0  0  0
   -2.6067   -0.9229   -0.1417 C   0  0  0  0  0  0
   -3.4966   -0.4165   -1.0786 N   0  0  0  0  0  0
   -1.2153   -1.1853   -0.6915 C   0  0  0  0  0  0
   -0.4953    0.1009   -1.1460 C   0  0  0  0  0  0
    0.9046   -0.1709   -1.7043 C   0  0  0  0  0  0
    1.0807   -1.1130   -2.4773 O   0  0  0  0  0  0
    1.8702    0.6755   -1.2993 N   0  0  0  0  0  0
    3.2404    0.6900   -1.6710 C   0  0  0  0  0  0
    4.1448    1.5480   -1.1869 N   0  3  0  0  0  0
    5.4198    1.3117   -1.7051 C   0  0  0  0  0  0
    5.4715    0.2774   -2.6082 C   0  0  0  0  0  0
    3.8998   -0.4486   -2.8346 S   0  0  0  0  0  0
    6.6692   -0.2257   -3.3445 C   0  0  0  0  0  0
    7.1027    0.7302   -4.4395 C   0  0  0  0  0  0
    8.1285    1.6684   -4.1987 C   0  0  0  0  0  0
    8.5236    2.5604   -5.2147 C   0  0  0  0  0  0
    7.8948    2.5181   -6.4743 C   0  0  0  0  0  0
    6.8694    1.5832   -6.7177 C   0  0  0  0  0  0
    6.4743    0.6908   -5.7019 C   0  0  0  0  0  0
    6.2618    1.5416   -7.9273 F   0  0  0  0  0  0
    8.2760    3.3771   -7.4494 F   0  0  0  0  0  0
   -2.1083   -1.5704    1.7735 H   0  0  0  0  0  0
   -8.3907    0.6540    0.3106 H   0  0  0  0  0  0
   -7.7000    1.0496   -1.9569 H   0  0  0  0  0  0
   -5.4406    0.5645   -2.6355 H   0  0  0  0  0  0
   -6.8293   -0.2290    1.9196 H   0  0  0  0  0  0
   -1.3172   -1.8700   -1.5464 H   0  0  0  0  0  0
   -0.6290   -1.6732    0.1011 H   0  0  0  0  0  0
   -1.0836    0.5909   -1.9358 H   0  0  0  0  0  0
   -0.3898    0.7840   -0.2902 H   0  0  0  0  0  0
    6.2516    1.8171   -1.4755 H   0  0  0  0  0  0
    6.4169   -1.2004   -3.7874 H   0  0  0  0  0  0
    7.4894   -0.3523   -2.6224 H   0  0  0  0  0  0
    8.6127    1.7088   -3.2339 H   0  0  0  0  0  0
    9.3087    3.2779   -5.0271 H   0  0  0  0  0  0
    5.6853   -0.0220   -5.8923 H   0  0  0  0  0  0
    1.4839    1.4253   -0.5932 H   0  0  0  0  0  0
    3.9860    2.3655   -0.4681 H   0  0  0  0  0  0
   -3.1376   -0.2601   -2.1065 H   0  0  0  0  0  0
  1  6  1  0  0  0
  1 32  1  0  0  0
  1  2  2  0  0  0
  2 33  1  0  0  0
  2  3  1  0  0  0
  3 34  1  0  0  0
  3  4  2  0  0  0
  4  5  1  0  0  0
  4 11  1  0  0  0
  5  7  1  0  0  0
  5  6  2  0  0  0
  6 35  1  0  0  0
  7  8  2  0  0  0
  7  9  1  0  0  0
  9 10  2  0  0  0
  9 31  1  0  0  0
 10 11  1  0  0  0
 10 12  1  0  0  0
 11 48  1  0  0  0
 12 13  1  0  0  0
 12 36  1  0  0  0
 12 37  1  0  0  0
 13 38  1  0  0  0
 13 39  1  0  0  0
 13 14  1  0  0  0
 14 16  1  0  0  0
 14 15  2  0  0  0
 16 17  1  0  0  0
 16 46  1  0  0  0
 17 21  1  0  0  0
 17 18  2  0  0  0
 18 19  1  0  0  0
 18 47  1  0  0  0
 19 40  1  0  0  0
 19 20  2  0  0  0
 20 22  1  0  0  0
 20 21  1  0  0  0
 22 23  1  0  0  0
 22 41  1  0  0  0
 22 42  1  0  0  0
 23 28  1  0  0  0
 23 24  2  0  0  0
 24 25  1  0  0  0
 24 43  1  0  0  0
 25 26  2  0  0  0
 25 44  1  0  0  0
 26 27  1  0  0  0
 26 30  1  0  0  0
 27 28  2  0  0  0
 27 29  1  0  0  0
 28 45  1  0  0  0
M  CHG  2   9   1  18   1
M  END
> <s_m_source_file>
SM18.smi

> <i_m_source_file_index>
1

> <i_lp_mmshare_version>
38013

> <i_f3d_flags>
0

> <s_lp_Force_Field>
OPLS_2005

> <r_lp_Energy>
13.8546902704395

> <b_lp_Chiralities_Consistent>
1

> <s_lp_Variant>
SM18-2

> <r_epik_Ionization_Penalty>
  2.1092

> <r_epik_Ionization_Penalty_Charging>
  2.0503

> <r_epik_Ionization_Penalty_Neutral>
  0.0589

> <r_epik_State_Penalty>
  2.6101

> <r_epik_Charging_Adjusted_Penalty>
4.66032411060734

> <i_epik_Tot_Q>
2

> <i_epik_Tot_abs_Q>
2

$$$$
SM18
                    3D
 Structure written by MMmdl.
 48 51  0  0  1  0            999 V2000
   -7.4510    0.4506    0.0358 C   0  0  0  0  0  0
   -7.0468    0.6829   -1.2944 C   0  0  0  0  0  0
   -5.7255    0.3991   -1.6913 C   0  0  0  0  0  0
   -4.8134   -0.1080   -0.7463 C   0  0  0  0  0  0
   -5.2100   -0.3531    0.5880 C   0  0  0  0  0  0
   -6.5375   -0.0660    0.9771 C   0  0  0  0  0  0
   -4.1864   -0.9106    1.5628 C   0  0  0  0  0  0
   -4.5317   -1.1175    2.7255 O   0  0  0  0  0  0
   -2.8849   -1.1692    1.1056 N   0  0  0  0  0  0
   -2.6067   -0.9229   -0.1417 C   0  0  0  0  0  0
   -3.4966   -0.4165   -1.0786 N   0  0  0  0  0  0
   -1.2153   -1.1853   -0.6915 C   0  0  0  0  0  0
   -0.4953    0.1009   -1.1460 C   0  0  0  0  0  0
    0.9046   -0.1709   -1.7043 C   0  0  0  0  0  0
    1.0807   -1.1130   -2.4773 O   0  3  0  0  0  0
    1.8702    0.6755   -1.2993 N   0  0  0  0  0  0
    3.2404    0.6900   -1.6710 C   0  0  0  0  0  0
    4.1448    1.5480   -1.1869 N   0  3  0  0  0  0
    5.4198    1.3117   -1.7051 C   0  0  0  0  0  0
    5.4715    0.2774   -2.6082 C   0  0  0  0  0  0
    3.8998   -0.4486   -2.8346 S   0  0  0  0  0  0
    6.6692   -0.2257   -3.3445 C   0  0  0  0  0  0
    7.1027    0.7302   -4.4395 C   0  0  0  0  0  0
    8.1285    1.6684   -4.1987 C   0  0  0  0  0  0
    8.5236    2.5604   -5.2147 C   0  0  0  0  0  0
    7.8948    2.5181   -6.4743 C   0  0  0  0  0  0
    6.8694    1.5832   -6.7177 C   0  0  0  0  0  0
    6.4743    0.6908   -5.7019 C   0  0  0  0  0  0
    6.2618    1.5416   -7.9273 F   0  0  0  0  0  0
    8.2760    3.3771   -7.4494 F   0  0  0  0  0  0
   -2.1083   -1.5704    1.7735 H   0  0  0  0  0  0
   -8.3907    0.6540    0.3106 H   0  0  0  0  0  0
   -7.7000    1.0496   -1.9569 H   0  0  0  0  0  0
   -5.4406    0.5645   -2.6355 H   0  0  0  0  0  0
   -6.8293   -0.2290    1.9196 H   0  0  0  0  0  0
   -1.3172   -1.8700   -1.5464 H   0  0  0  0  0  0
   -0.6290   -1.6732    0.1011 H   0  0  0  0  0  0
   -1.0836    0.5909   -1.9358 H   0  0  0  0  0  0
   -0.3898    0.7840   -0.2902 H   0  0  0  0  0  0
    6.2516    1.8171   -1.4755 H   0  0  0  0  0  0
    6.4169   -1.2004   -3.7874 H   0  0  0  0  0  0
    7.4894   -0.3523   -2.6224 H   0  0  0  0  0  0
    8.6127    1.7088   -3.2339 H   0  0  0  0  0  0
    9.3087    3.2779   -5.0271 H   0  0  0  0  0  0
    5.6853   -0.0220   -5.8923 H   0  0  0  0  0  0
    1.4839    1.4253   -0.5932 H   0  0  0  0  0  0
    3.9860    2.3655   -0.4681 H   0  0  0  0  0  0
    0.2347   -1.7549   -2.7638 H   0  0  0  0  0  0
  1  6  2  0  0  0
  1 32  1  0  0  0
  1  2  1  0  0  0
  2 33  1  0  0  0
  2  3  2  0  0  0
  3 34  1  0  0  0
  3  4  1  0  0  0
  4  5  2  0  0  0
  4 11  1  0  0  0
  5  7  1  0  0  0
  5  6  1  0  0  0
  6 35  1  0  0  0
  7  8  2  0  0  0
  7  9  1  0  0  0
  9 10  1  0  0  0
  9 31  1  0  0  0
 10 11  2  0  0  0
 10 12  1  0  0  0
 12 13  1  0  0  0
 12 36  1  0  0  0
 12 37  1  0  0  0
 13 38  1  0  0  0
 13 39  1  0  0  0
 13 14  1  0  0  0
 14 16  1  0  0  0
 14 15  2  0  0  0
 15 48  1  0  0  0
 16 17  1  0  0  0
 16 46  1  0  0  0
 17 21  1  0  0  0
 17 18  2  0  0  0
 18 19  1  0  0  0
 18 47  1  0  0  0
 19 40  1  0  0  0
 19 20  2  0  0  0
 20 22  1  0  0  0
 20 21  1  0  0  0
 22 23  1  0  0  0
 22 41  1  0  0  0
 22 42  1  0  0  0
 23 28  1  0  0  0
 23 24  2  0  0  0
 24 25  1  0  0  0
 24 43  1  0  0  0
 25 26  2  0  0  0
 25 44  1  0  0  0
 26 27  1  0  0  0
 26 30  1  0  0  0
 27 28  2  0  0  0
 27 29  1  0  0  0
 28 45  1  0  0  0
M  CHG  2  15   1  18   1
M  END
> <s_m_source_file>
SM18.smi

> <i_m_source_file_index>
1

> <i_lp_mmshare_version>
38013

> <i_f3d_flags>
0

> <s_lp_Force_Field>
OPLS_2005

> <r_lp_Energy>
13.8546902704395

> <b_lp_Chiralities_Consistent>
1

> <s_lp_Variant>
SM18-2

> <r_epik_Ionization_Penalty>
  5.3406

> <r_epik_Ionization_Penalty_Charging>
  4.3521

> <r_epik_Ionization_Penalty_Neutral>
  0.9885

> <r_epik_State_Penalty>
  4.3866

> <r_epik_Charging_Adjusted_Penalty>
8.73865505939786

> <i_epik_Tot_Q>
2

> <i_epik_Tot_abs_Q>
2

$$$$
SM18
                    3D
 Structure written by MMmdl.
 46 49  0  0  1  0            999 V2000
   -6.8893    0.8052    2.1537 C   0  0  0  0  0  0
   -5.8742    0.5853    3.1067 C   0  0  0  0  0  0
   -4.5343    0.8867    2.7942 C   0  0  0  0  0  0
   -4.2194    1.3988    1.5211 C   0  0  0  0  0  0
   -5.2300    1.6315    0.5609 C   0  0  0  0  0  0
   -6.5715    1.3268    0.8832 C   0  0  0  0  0  0
   -4.8339    2.1952   -0.7935 C   0  0  0  0  0  0
   -5.7143    2.3913   -1.6304 O   0  0  0  0  0  0
   -3.4808    2.4715   -1.0438 N   0  0  0  0  0  0
   -2.6162    2.2356   -0.1001 C   0  0  0  0  0  0
   -2.9158    1.7244    1.1549 N   0  0  0  0  0  0
   -1.1391    2.5173   -0.3147 C   0  0  0  0  0  0
   -0.2719    1.2421   -0.2794 C   0  0  0  0  0  0
    1.2167    1.5333   -0.4909 C   0  0  0  0  0  0
    1.7416    2.4819    0.0929 O   0  0  0  0  0  0
    1.8639    0.6958   -1.3230 N   0  0  0  0  0  0
    3.2376    0.6993   -1.6818 C   0  0  0  0  0  0
    4.1448    1.5480   -1.1869 N   0  0  0  0  0  0
    5.4198    1.3117   -1.7051 C   0  0  0  0  0  0
    5.4715    0.2774   -2.6082 C   0  0  0  0  0  0
    3.8979   -0.4418   -2.8425 S   0  0  0  0  0  0
    6.6692   -0.2257   -3.3445 C   0  0  0  0  0  0
    7.1027    0.7302   -4.4395 C   0  0  0  0  0  0
    8.1285    1.6684   -4.1987 C   0  0  0  0  0  0
    8.5236    2.5604   -5.2147 C   0  0  0  0  0  0
    7.8948    2.5181   -6.4743 C   0  0  0  0  0  0
    6.8694    1.5832   -6.7177 C   0  0  0  0  0  0
    6.4743    0.6908   -5.7019 C   0  0  0  0  0  0
    6.2618    1.5416   -7.9273 F   0  0  0  0  0  0
    8.2760    3.3771   -7.4494 F   0  0  0  0  0  0
   -3.1444    2.8777   -2.0091 H   0  0  0  0  0  0
   -7.8385    0.5894    2.3825 H   0  0  0  0  0  0
   -6.1068    0.2150    4.0060 H   0  0  0  0  0  0
   -3.8155    0.7301    3.4716 H   0  0  0  0  0  0
   -7.2953    1.4810    0.2106 H   0  0  0  0  0  0
   -0.8113    3.2057    0.4781 H   0  0  0  0  0  0
   -1.0308    3.0073   -1.2936 H   0  0  0  0  0  0
   -0.3832    0.7500    0.6980 H   0  0  0  0  0  0
   -0.5970    0.5554   -1.0748 H   0  0  0  0  0  0
    6.2516    1.8171   -1.4755 H   0  0  0  0  0  0
    6.4169   -1.2004   -3.7874 H   0  0  0  0  0  0
    7.4894   -0.3523   -2.6224 H   0  0  0  0  0  0
    8.6127    1.7088   -3.2339 H   0  0  0  0  0  0
    9.3087    3.2779   -5.0271 H   0  0  0  0  0  0
    5.6853   -0.0220   -5.8923 H   0  0  0  0  0  0
    3.9881    2.3584   -0.4597 H   0  0  0  0  0  0
  1  6  2  0  0  0
  1 32  1  0  0  0
  1  2  1  0  0  0
  2 33  1  0  0  0
  2  3  2  0  0  0
  3 34  1  0  0  0
  3  4  1  0  0  0
  4  5  2  0  0  0
  4 11  1  0  0  0
  5  7  1  0  0  0
  5  6  1  0  0  0
  6 35  1  0  0  0
  7  8  2  0  0  0
  7  9  1  0  0  0
  9 10  1  0  0  0
  9 31  1  0  0  0
 10 11  2  0  0  0
 10 12  1  0  0  0
 12 13  1  0  0  0
 12 36  1  0  0  0
 12 37  1  0  0  0
 13 38  1  0  0  0
 13 39  1  0  0  0
 13 14  1  0  0  0
 14 16  1  0  0  0
 14 15  2  0  0  0
 16 17  2  0  0  0
 17 21  1  0  0  0
 17 18  1  0  0  0
 18 19  1  0  0  0
 18 46  1  0  0  0
 19 40  1  0  0  0
 19 20  2  0  0  0
 20 22  1  0  0  0
 20 21  1  0  0  0
 22 23  1  0  0  0
 22 41  1  0  0  0
 22 42  1  0  0  0
 23 28  1  0  0  0
 23 24  2  0  0  0
 24 25  1  0  0  0
 24 43  1  0  0  0
 25 26  2  0  0  0
 25 44  1  0  0  0
 26 27  1  0  0  0
 26 30  1  0  0  0
 27 28  2  0  0  0
 27 29  1  0  0  0
 28 45  1  0  0  0
M  END
> <s_m_source_file>
SM18.smi

> <i_m_source_file_index>
1

> <i_lp_mmshare_version>
38013

> <i_f3d_flags>
0

> <s_lp_Force_Field>
OPLS_2005

> <r_lp_Energy>
13.8546902704395

> <b_lp_Chiralities_Consistent>
1

> <s_lp_Variant>
SM18-2

> <r_lp_tautomer_probability>
0.000441748120917748

> <r_epik_Ionization_Penalty>
  3.7753

> <r_epik_Ionization_Penalty_Charging>
  1.4490

> <r_epik_Ionization_Penalty_Neutral>
  2.3263

> <r_epik_State_Penalty>
  4.6074

> <r_epik_Charging_Adjusted_Penalty>
6.05640850160635

> <i_epik_Tot_Q>
0

> <i_epik_Tot_abs_Q>
0

$$$$
SM18
                    3D
 Structure written by MMmdl.
 46 49  0  0  1  0            999 V2000
   -7.4707    0.5405   -0.0747 C   0  0  0  0  0  0
   -7.0525    0.7640   -1.4021 C   0  0  0  0  0  0
   -5.7295    0.4694   -1.7852 C   0  0  0  0  0  0
   -4.8298   -0.0396   -0.8294 C   0  0  0  0  0  0
   -5.2405   -0.2759    0.5022 C   0  0  0  0  0  0
   -6.5697    0.0220    0.8775 C   0  0  0  0  0  0
   -4.2300   -0.8360    1.4890 C   0  0  0  0  0  0
   -4.5876   -1.0352    2.6493 O   0  0  0  0  0  0
   -2.9260   -1.1055    1.0453 N   0  0  0  0  0  0
   -2.6345   -0.8667   -0.2004 C   0  0  0  0  0  0
   -3.5120   -0.3585   -1.1479 N   0  0  0  0  0  0
   -1.2398   -1.1411   -0.7360 C   0  0  0  0  0  0
   -0.5068    0.1381   -1.1894 C   0  0  0  0  0  0
    0.8964   -0.1458   -1.7333 C   0  0  0  0  0  0
    1.0733   -1.0926   -2.5004 O   0  0  0  0  0  0
    1.8639    0.6958   -1.3230 N   0  0  0  0  0  0
    3.2376    0.6993   -1.6818 C   0  0  0  0  0  0
    4.1448    1.5480   -1.1869 N   0  0  0  0  0  0
    5.4198    1.3117   -1.7051 C   0  0  0  0  0  0
    5.4715    0.2774   -2.6082 C   0  0  0  0  0  0
    3.8979   -0.4418   -2.8425 S   0  0  0  0  0  0
    6.6692   -0.2257   -3.3445 C   0  0  0  0  0  0
    7.1027    0.7302   -4.4395 C   0  0  0  0  0  0
    8.1285    1.6684   -4.1987 C   0  0  0  0  0  0
    8.5236    2.5604   -5.2147 C   0  0  0  0  0  0
    7.8948    2.5181   -6.4743 C   0  0  0  0  0  0
    6.8694    1.5832   -6.7177 C   0  0  0  0  0  0
    6.4743    0.6908   -5.7019 C   0  0  0  0  0  0
    6.2618    1.5416   -7.9273 F   0  0  0  0  0  0
    8.2760    3.3771   -7.4494 F   0  0  0  0  0  0
   -2.1585   -1.5090    1.7222 H   0  0  0  0  0  0
   -8.4116    0.7515    0.1903 H   0  0  0  0  0  0
   -7.6969    1.1322   -2.0722 H   0  0  0  0  0  0
   -5.4346    0.6286   -2.7274 H   0  0  0  0  0  0
   -6.8714   -0.1348    1.8179 H   0  0  0  0  0  0
   -1.3384   -1.8289   -1.5888 H   0  0  0  0  0  0
   -0.6644   -1.6294    0.0642 H   0  0  0  0  0  0
   -1.0843    0.6285   -1.9869 H   0  0  0  0  0  0
   -0.4046    0.8243   -0.3357 H   0  0  0  0  0  0
    6.2516    1.8171   -1.4755 H   0  0  0  0  0  0
    6.4169   -1.2004   -3.7874 H   0  0  0  0  0  0
    7.4894   -0.3523   -2.6224 H   0  0  0  0  0  0
    8.6127    1.7088   -3.2339 H   0  0  0  0  0  0
    9.3087    3.2779   -5.0271 H   0  0  0  0  0  0
    5.6853   -0.0220   -5.8923 H   0  0  0  0  0  0
    3.9881    2.3584   -0.4597 H   0  0  0  0  0  0
  1  6  2  0  0  0
  1 32  1  0  0  0
  1  2  1  0  0  0
  2 33  1  0  0  0
  2  3  2  0  0  0
  3 34  1  0  0  0
  3  4  1  0  0  0
  4  5  2  0  0  0
  4 11  1  0  0  0
  5  7  1  0  0  0
  5  6  1  0  0  0
  6 35  1  0  0  0
  7  8  2  0  0  0
  7  9  1  0  0  0
  9 10  1  0  0  0
  9 31  1  0  0  0
 10 11  2  0  0  0
 10 12  1  0  0  0
 12 13  1  0  0  0
 12 36  1  0  0  0
 12 37  1  0  0  0
 13 38  1  0  0  0
 13 39  1  0  0  0
 13 14  1  0  0  0
 14 16  1  0  0  0
 14 15  2  0  0  0
 16 17  2  0  0  0
 17 21  1  0  0  0
 17 18  1  0  0  0
 18 19  1  0  0  0
 18 46  1  0  0  0
 19 40  1  0  0  0
 19 20  2  0  0  0
 20 22  1  0  0  0
 20 21  1  0  0  0
 22 23  1  0  0  0
 22 41  1  0  0  0
 22 42  1  0  0  0
 23 28  1  0  0  0
 23 24  2  0  0  0
 24 25  1  0  0  0
 24 43  1  0  0  0
 25 26  2  0  0  0
 25 44  1  0  0  0
 26 27  1  0  0  0
 26 30  1  0  0  0
 27 28  2  0  0  0
 27 29  1  0  0  0
 28 45  1  0  0  0
M  END
> <s_m_source_file>
SM18.smi

> <i_m_source_file_index>
1

> <i_lp_mmshare_version>
38013

> <i_f3d_flags>
0

> <s_lp_Force_Field>
OPLS_2005

> <r_lp_Energy>
13.8546902704395

> <b_lp_Chiralities_Consistent>
1

> <s_lp_Variant>
SM18-2

> <r_lp_tautomer_probability>
0.000441748120917748

> <r_epik_Ionization_Penalty>
  3.7753

> <r_epik_Ionization_Penalty_Charging>
  1.4490

> <r_epik_Ionization_Penalty_Neutral>
  2.3263

> <r_epik_State_Penalty>
  4.6074

> <r_epik_Charging_Adjusted_Penalty>
6.05640850160635

> <i_epik_Tot_Q>
0

> <i_epik_Tot_abs_Q>
0

$$$$
SM18
                    3D
 Structure written by MMmdl.
 48 51  0  0  1  0            999 V2000
   -7.4510    0.4506    0.0358 C   0  0  0  0  0  0
   -7.0468    0.6829   -1.2944 C   0  0  0  0  0  0
   -5.7255    0.3991   -1.6913 C   0  0  0  0  0  0
   -4.8134   -0.1080   -0.7463 C   0  0  0  0  0  0
   -5.2100   -0.3531    0.5880 C   0  0  0  0  0  0
   -6.5375   -0.0660    0.9771 C   0  0  0  0  0  0
   -4.1864   -0.9106    1.5628 C   0  0  0  0  0  0
   -4.5317   -1.1175    2.7255 O   0  0  0  0  0  0
   -2.8849   -1.1692    1.1056 N   0  3  0  0  0  0
   -2.6067   -0.9229   -0.1417 C   0  0  0  0  0  0
   -3.4966   -0.4165   -1.0786 N   0  0  0  0  0  0
   -1.2153   -1.1853   -0.6915 C   0  0  0  0  0  0
   -0.4953    0.1009   -1.1460 C   0  0  0  0  0  0
    0.9046   -0.1709   -1.7043 C   0  0  0  0  0  0
    1.0807   -1.1130   -2.4773 O   0  3  0  0  0  0
    1.8702    0.6755   -1.2993 N   0  0  0  0  0  0
    3.2404    0.6900   -1.6710 C   0  0  0  0  0  0
    4.1448    1.5480   -1.1869 N   0  0  0  0  0  0
    5.4198    1.3117   -1.7051 C   0  0  0  0  0  0
    5.4715    0.2774   -2.6082 C   0  0  0  0  0  0
    3.8998   -0.4486   -2.8346 S   0  0  0  0  0  0
    6.6692   -0.2257   -3.3445 C   0  0  0  0  0  0
    7.1027    0.7302   -4.4395 C   0  0  0  0  0  0
    8.1285    1.6684   -4.1987 C   0  0  0  0  0  0
    8.5236    2.5604   -5.2147 C   0  0  0  0  0  0
    7.8948    2.5181   -6.4743 C   0  0  0  0  0  0
    6.8694    1.5832   -6.7177 C   0  0  0  0  0  0
    6.4743    0.6908   -5.7019 C   0  0  0  0  0  0
    6.2618    1.5416   -7.9273 F   0  0  0  0  0  0
    8.2760    3.3771   -7.4494 F   0  0  0  0  0  0
   -2.1083   -1.5704    1.7735 H   0  0  0  0  0  0
   -8.3907    0.6540    0.3106 H   0  0  0  0  0  0
   -7.7000    1.0496   -1.9569 H   0  0  0  0  0  0
   -5.4406    0.5645   -2.6355 H   0  0  0  0  0  0
   -6.8293   -0.2290    1.9196 H   0  0  0  0  0  0
   -1.3172   -1.8700   -1.5464 H   0  0  0  0  0  0
   -0.6290   -1.6732    0.1011 H   0  0  0  0  0  0
   -1.0836    0.5909   -1.9358 H   0  0  0  0  0  0
   -0.3898    0.7840   -0.2902 H   0  0  0  0  0  0
    6.2516    1.8171   -1.4755 H   0  0  0  0  0  0
    6.4169   -1.2004   -3.7874 H   0  0  0  0  0  0
    7.4894   -0.3523   -2.6224 H   0  0  0  0  0  0
    8.6127    1.7088   -3.2339 H   0  0  0  0  0  0
    9.3087    3.2779   -5.0271 H   0  0  0  0  0  0
    5.6853   -0.0220   -5.8923 H   0  0  0  0  0  0
    1.4839    1.4253   -0.5932 H   0  0  0  0  0  0
   -3.1376   -0.2601   -2.1065 H   0  0  0  0  0  0
    0.2347   -1.7549   -2.7638 H   0  0  0  0  0  0
  1  6  1  0  0  0
  1 32  1  0  0  0
  1  2  2  0  0  0
  2 33  1  0  0  0
  2  3  1  0  0  0
  3 34  1  0  0  0
  3  4  2  0  0  0
  4  5  1  0  0  0
  4 11  1  0  0  0
  5  7  1  0  0  0
  5  6  2  0  0  0
  6 35  1  0  0  0
  7  8  2  0  0  0
  7  9  1  0  0  0
  9 10  2  0  0  0
  9 31  1  0  0  0
 10 11  1  0  0  0
 10 12  1  0  0  0
 11 47  1  0  0  0
 12 13  1  0  0  0
 12 36  1  0  0  0
 12 37  1  0  0  0
 13 38  1  0  0  0
 13 39  1  0  0  0
 13 14  1  0  0  0
 14 16  1  0  0  0
 14 15  2  0  0  0
 15 48  1  0  0  0
 16 17  1  0  0  0
 16 46  1  0  0  0
 17 21  1  0  0  0
 17 18  2  0  0  0
 18 19  1  0  0  0
 19 40  1  0  0  0
 19 20  2  0  0  0
 20 22  1  0  0  0
 20 21  1  0  0  0
 22 23  1  0  0  0
 22 41  1  0  0  0
 22 42  1  0  0  0
 23 28  1  0  0  0
 23 24  2  0  0  0
 24 25  1  0  0  0
 24 43  1  0  0  0
 25 26  2  0  0  0
 25 44  1  0  0  0
 26 27  1  0  0  0
 26 30  1  0  0  0
 27 28  2  0  0  0
 27 29  1  0  0  0
 28 45  1  0  0  0
M  CHG  2   9   1  15   1
M  END
> <s_m_source_file>
SM18.smi

> <i_m_source_file_index>
1

> <i_lp_mmshare_version>
38013

> <i_f3d_flags>
0

> <s_lp_Force_Field>
OPLS_2005

> <r_lp_Energy>
13.8546902704395

> <b_lp_Chiralities_Consistent>
1

> <s_lp_Variant>
SM18-2

> <r_epik_Ionization_Penalty>
  5.7330

> <r_epik_Ionization_Penalty_Charging>
  3.6170

> <r_epik_Ionization_Penalty_Neutral>
  2.1160

> <r_epik_State_Penalty>
  4.7229

> <r_epik_Charging_Adjusted_Penalty>
8.33995163970256

> <i_epik_Tot_Q>
2

> <i_epik_Tot_abs_Q>
2

$$$$
SM18
                    3D
 Structure written by MMmdl.
 48 51  0  0  1  0            999 V2000
   -7.4436    0.4756    0.0423 C   0  0  0  0  0  0
   -7.0419    0.6994   -1.2902 C   0  0  0  0  0  0
   -5.7230    0.4076   -1.6891 C   0  0  0  0  0  0
   -4.8133   -0.1080   -0.7463 C   0  0  0  0  0  0
   -5.2049   -0.3361    0.5924 C   0  0  0  0  0  0
   -6.5300   -0.0407    0.9837 C   0  0  0  0  0  0
   -4.1815   -0.8941    1.5671 C   0  0  0  0  0  0
   -4.5246   -1.0935    2.7318 O   0  0  0  0  0  0
   -2.8823   -1.1607    1.1078 N   0  0  0  0  0  0
   -2.6064   -0.9219   -0.1414 C   0  0  0  0  0  0
   -3.4964   -0.4160   -1.0784 N   0  0  0  0  0  0
   -1.2148   -1.1839   -0.6912 C   0  0  0  0  0  0
   -0.4953    0.1026   -1.1457 C   0  0  0  0  0  0
    0.9047   -0.1687   -1.7039 C   0  0  0  0  0  0
    1.0813   -1.1109   -2.4768 O   0  3  0  0  0  0
    1.8700    0.6781   -1.2989 N   0  0  0  0  0  0
    3.2401    0.6931   -1.6705 C   0  0  0  0  0  0
    4.1442    1.5515   -1.1865 N   0  3  0  0  0  0
    5.4193    1.3157   -1.7046 C   0  0  0  0  0  0
    5.4715    0.2812   -2.6075 C   0  0  0  0  0  0
    3.9001   -0.4454   -2.8340 S   0  0  0  0  0  0
    6.6695   -0.2214   -3.3437 C   0  0  0  0  0  0
    7.1026    0.7345   -4.4388 C   0  0  0  0  0  0
    8.1281    1.6731   -4.1981 C   0  0  0  0  0  0
    8.5229    2.5651   -5.2142 C   0  0  0  0  0  0
    7.8942    2.5224   -6.4738 C   0  0  0  0  0  0
    6.8691    1.5871   -6.7171 C   0  0  0  0  0  0
    6.4743    0.6947   -5.7012 C   0  0  0  0  0  0
    6.2616    1.5451   -7.9267 F   0  0  0  0  0  0
    8.2751    3.3815   -7.4489 F   0  0  0  0  0  0
   -3.1375   -0.2595   -2.1064 H   0  0  0  0  0  0
   -8.3816    0.6849    0.3186 H   0  0  0  0  0  0
   -7.6952    1.0658   -1.9527 H   0  0  0  0  0  0
   -5.4399    0.5668   -2.6349 H   0  0  0  0  0  0
   -6.8200   -0.1978    1.9278 H   0  0  0  0  0  0
   -0.5963   -1.6560    0.0863 H   0  0  0  0  0  0
   -1.2843   -1.8533   -1.5612 H   0  0  0  0  0  0
   -1.0838    0.5922   -1.9356 H   0  0  0  0  0  0
   -0.3901    0.7858   -0.2900 H   0  0  0  0  0  0
    6.2509    1.8214   -1.4750 H   0  0  0  0  0  0
    6.4176   -1.1964   -3.7866 H   0  0  0  0  0  0
    7.4896   -0.3477   -2.6216 H   0  0  0  0  0  0
    8.6122    1.7138   -3.2332 H   0  0  0  0  0  0
    9.3076    3.2830   -5.0266 H   0  0  0  0  0  0
    5.6856   -0.0184   -5.8916 H   0  0  0  0  0  0
    1.4833    1.4278   -0.5929 H   0  0  0  0  0  0
    3.9850    2.3690   -0.4679 H   0  0  0  0  0  0
    0.2355   -1.7532   -2.7633 H   0  0  0  0  0  0
  1  6  2  0  0  0
  1 32  1  0  0  0
  1  2  1  0  0  0
  2 33  1  0  0  0
  2  3  2  0  0  0
  3 34  1  0  0  0
  3  4  1  0  0  0
  4  5  2  0  0  0
  4 11  1  0  0  0
  5  7  1  0  0  0
  5  6  1  0  0  0
  6 35  1  0  0  0
  7  8  2  0  0  0
  7  9  1  0  0  0
  9 10  2  0  0  0
 10 11  1  0  0  0
 10 12  1  0  0  0
 11 31  1  0  0  0
 12 13  1  0  0  0
 12 36  1  0  0  0
 12 37  1  0  0  0
 13 38  1  0  0  0
 13 39  1  0  0  0
 13 14  1  0  0  0
 14 16  1  0  0  0
 14 15  2  0  0  0
 15 48  1  0  0  0
 16 17  1  0  0  0
 16 46  1  0  0  0
 17 21  1  0  0  0
 17 18  2  0  0  0
 18 19  1  0  0  0
 18 47  1  0  0  0
 19 40  1  0  0  0
 19 20  2  0  0  0
 20 22  1  0  0  0
 20 21  1  0  0  0
 22 23  1  0  0  0
 22 41  1  0  0  0
 22 42  1  0  0  0
 23 28  1  0  0  0
 23 24  2  0  0  0
 24 25  1  0  0  0
 24 43  1  0  0  0
 25 26  2  0  0  0
 25 44  1  0  0  0
 26 27  1  0  0  0
 26 30  1  0  0  0
 27 28  2  0  0  0
 27 29  1  0  0  0
 28 45  1  0  0  0
M  CHG  2  15   1  18   1
M  END
> <s_m_source_file>
SM18.smi

> <i_m_source_file_index>
1

> <i_lp_mmshare_version>
38013

> <i_f3d_flags>
0

> <s_lp_Force_Field>
OPLS_2005

> <r_lp_Energy>
13.8546902704395

> <b_lp_Chiralities_Consistent>
1

> <s_lp_Variant>
SM18-2

> <r_epik_Ionization_Penalty>
  5.6900

> <r_epik_Ionization_Penalty_Charging>
  4.3520

> <r_epik_Ionization_Penalty_Neutral>
  1.3379

> <r_epik_State_Penalty>
  5.2630

> <r_epik_Charging_Adjusted_Penalty>
9.61499709198437

> <i_epik_Tot_Q>
2

> <i_epik_Tot_abs_Q>
2

$$$$
SM18
                    3D
 Structure written by MMmdl.
 47 50  0  0  1  0            999 V2000
   -7.4510    0.4506    0.0358 C   0  0  0  0  0  0
   -7.0468    0.6829   -1.2944 C   0  0  0  0  0  0
   -5.7255    0.3991   -1.6913 C   0  0  0  0  0  0
   -4.8134   -0.1080   -0.7463 C   0  0  0  0  0  0
   -5.2100   -0.3531    0.5880 C   0  0  0  0  0  0
   -6.5375   -0.0660    0.9771 C   0  0  0  0  0  0
   -4.1864   -0.9106    1.5628 C   0  0  0  0  0  0
   -4.5317   -1.1175    2.7255 O   0  0  0  0  0  0
   -2.8849   -1.1692    1.1056 N   0  0  0  0  0  0
   -2.6067   -0.9229   -0.1417 C   0  0  0  0  0  0
   -3.4966   -0.4165   -1.0786 N   0  0  0  0  0  0
   -1.2153   -1.1853   -0.6915 C   0  0  0  0  0  0
   -0.4953    0.1009   -1.1460 C   0  0  0  0  0  0
    0.9046   -0.1709   -1.7043 C   0  0  0  0  0  0
    1.0807   -1.1130   -2.4773 O   0  3  0  0  0  0
    1.8702    0.6755   -1.2993 N   0  0  0  0  0  0
    3.2404    0.6900   -1.6710 C   0  0  0  0  0  0
    4.1448    1.5480   -1.1869 N   0  0  0  0  0  0
    5.4198    1.3117   -1.7051 C   0  0  0  0  0  0
    5.4715    0.2774   -2.6082 C   0  0  0  0  0  0
    3.8998   -0.4486   -2.8346 S   0  0  0  0  0  0
    6.6692   -0.2257   -3.3445 C   0  0  0  0  0  0
    7.1027    0.7302   -4.4395 C   0  0  0  0  0  0
    8.1285    1.6684   -4.1987 C   0  0  0  0  0  0
    8.5236    2.5604   -5.2147 C   0  0  0  0  0  0
    7.8948    2.5181   -6.4743 C   0  0  0  0  0  0
    6.8694    1.5832   -6.7177 C   0  0  0  0  0  0
    6.4743    0.6908   -5.7019 C   0  0  0  0  0  0
    6.2618    1.5416   -7.9273 F   0  0  0  0  0  0
    8.2760    3.3771   -7.4494 F   0  0  0  0  0  0
   -2.1083   -1.5704    1.7735 H   0  0  0  0  0  0
   -8.3907    0.6540    0.3106 H   0  0  0  0  0  0
   -7.7000    1.0496   -1.9569 H   0  0  0  0  0  0
   -5.4406    0.5645   -2.6355 H   0  0  0  0  0  0
   -6.8293   -0.2290    1.9196 H   0  0  0  0  0  0
   -1.3172   -1.8700   -1.5464 H   0  0  0  0  0  0
   -0.6290   -1.6732    0.1011 H   0  0  0  0  0  0
   -1.0836    0.5909   -1.9358 H   0  0  0  0  0  0
   -0.3898    0.7840   -0.2902 H   0  0  0  0  0  0
    6.2516    1.8171   -1.4755 H   0  0  0  0  0  0
    6.4169   -1.2004   -3.7874 H   0  0  0  0  0  0
    7.4894   -0.3523   -2.6224 H   0  0  0  0  0  0
    8.6127    1.7088   -3.2339 H   0  0  0  0  0  0
    9.3087    3.2779   -5.0271 H   0  0  0  0  0  0
    5.6853   -0.0220   -5.8923 H   0  0  0  0  0  0
    1.4839    1.4253   -0.5932 H   0  0  0  0  0  0
    0.2347   -1.7549   -2.7638 H   0  0  0  0  0  0
  1  6  2  0  0  0
  1 32  1  0  0  0
  1  2  1  0  0  0
  2 33  1  0  0  0
  2  3  2  0  0  0
  3 34  1  0  0  0
  3  4  1  0  0  0
  4  5  2  0  0  0
  4 11  1  0  0  0
  5  7  1  0  0  0
  5  6  1  0  0  0
  6 35  1  0  0  0
  7  8  2  0  0  0
  7  9  1  0  0  0
  9 10  1  0  0  0
  9 31  1  0  0  0
 10 11  2  0  0  0
 10 12  1  0  0  0
 12 13  1  0  0  0
 12 36  1  0  0  0
 12 37  1  0  0  0
 13 38  1  0  0  0
 13 39  1  0  0  0
 13 14  1  0  0  0
 14 16  1  0  0  0
 14 15  2  0  0  0
 15 47  1  0  0  0
 16 17  1  0  0  0
 16 46  1  0  0  0
 17 21  1  0  0  0
 17 18  2  0  0  0
 18 19  1  0  0  0
 19 40  1  0  0  0
 19 20  2  0  0  0
 20 22  1  0  0  0
 20 21  1  0  0  0
 22 23  1  0  0  0
 22 41  1  0  0  0
 22 42  1  0  0  0
 23 28  1  0  0  0
 23 24  2  0  0  0
 24 25  1  0  0  0
 24 43  1  0  0  0
 25 26  2  0  0  0
 25 44  1  0  0  0
 26 27  1  0  0  0
 26 30  1  0  0  0
 27 28  2  0  0  0
 27 29  1  0  0  0
 28 45  1  0  0  0
M  CHG  1  15   1
M  END
> <s_m_source_file>
SM18.smi

> <i_m_source_file_index>
1

> <i_lp_mmshare_version>
38013

> <i_f3d_flags>
0

> <s_lp_Force_Field>
OPLS_2005

> <r_lp_Energy>
13.8546902704395

> <b_lp_Chiralities_Consistent>
1

> <s_lp_Variant>
SM18-2

> <r_epik_Ionization_Penalty>
  6.5637

> <r_epik_Ionization_Penalty_Charging>
  3.4362

> <r_epik_Ionization_Penalty_Neutral>
  3.1275

> <r_epik_State_Penalty>
  5.5785

> <r_epik_Charging_Adjusted_Penalty>
9.01465858932781

> <i_epik_Tot_Q>
1

> <i_epik_Tot_abs_Q>
1

$$$$
SM18
                    3D
 Structure written by MMmdl.
 47 50  0  0  1  0            999 V2000
   -7.4707    0.5405   -0.0747 C   0  0  0  0  0  0
   -7.0525    0.7640   -1.4021 C   0  0  0  0  0  0
   -5.7295    0.4694   -1.7852 C   0  0  0  0  0  0
   -4.8298   -0.0396   -0.8294 C   0  0  0  0  0  0
   -5.2405   -0.2759    0.5022 C   0  0  0  0  0  0
   -6.5697    0.0220    0.8775 C   0  0  0  0  0  0
   -4.2300   -0.8360    1.4890 C   0  0  0  0  0  0
   -4.5876   -1.0352    2.6493 O   0  0  0  0  0  0
   -2.9260   -1.1055    1.0453 N   0  3  0  0  0  0
   -2.6345   -0.8667   -0.2004 C   0  0  0  0  0  0
   -3.5120   -0.3585   -1.1479 N   0  0  0  0  0  0
   -1.2398   -1.1411   -0.7360 C   0  0  0  0  0  0
   -0.5068    0.1381   -1.1894 C   0  0  0  0  0  0
    0.8964   -0.1458   -1.7333 C   0  0  0  0  0  0
    1.0733   -1.0926   -2.5004 O   0  0  0  0  0  0
    1.8639    0.6958   -1.3230 N   0  0  0  0  0  0
    3.2376    0.6993   -1.6818 C   0  0  0  0  0  0
    4.1448    1.5480   -1.1869 N   0  0  0  0  0  0
    5.4198    1.3117   -1.7051 C   0  0  0  0  0  0
    5.4715    0.2774   -2.6082 C   0  0  0  0  0  0
    3.8979   -0.4418   -2.8425 S   0  0  0  0  0  0
    6.6692   -0.2257   -3.3445 C   0  0  0  0  0  0
    7.1027    0.7302   -4.4395 C   0  0  0  0  0  0
    8.1285    1.6684   -4.1987 C   0  0  0  0  0  0
    8.5236    2.5604   -5.2147 C   0  0  0  0  0  0
    7.8948    2.5181   -6.4743 C   0  0  0  0  0  0
    6.8694    1.5832   -6.7177 C   0  0  0  0  0  0
    6.4743    0.6908   -5.7019 C   0  0  0  0  0  0
    6.2618    1.5416   -7.9273 F   0  0  0  0  0  0
    8.2760    3.3771   -7.4494 F   0  0  0  0  0  0
   -2.1585   -1.5090    1.7222 H   0  0  0  0  0  0
   -8.4116    0.7515    0.1903 H   0  0  0  0  0  0
   -7.6969    1.1322   -2.0722 H   0  0  0  0  0  0
   -5.4346    0.6286   -2.7274 H   0  0  0  0  0  0
   -6.8714   -0.1348    1.8179 H   0  0  0  0  0  0
   -1.3384   -1.8289   -1.5888 H   0  0  0  0  0  0
   -0.6644   -1.6294    0.0642 H   0  0  0  0  0  0
   -1.0843    0.6285   -1.9869 H   0  0  0  0  0  0
   -0.4046    0.8243   -0.3357 H   0  0  0  0  0  0
    6.2516    1.8171   -1.4755 H   0  0  0  0  0  0
    6.4169   -1.2004   -3.7874 H   0  0  0  0  0  0
    7.4894   -0.3523   -2.6224 H   0  0  0  0  0  0
    8.6127    1.7088   -3.2339 H   0  0  0  0  0  0
    9.3087    3.2779   -5.0271 H   0  0  0  0  0  0
    5.6853   -0.0220   -5.8923 H   0  0  0  0  0  0
    3.9881    2.3584   -0.4597 H   0  0  0  0  0  0
   -3.1424   -0.2092   -2.1731 H   0  0  0  0  0  0
  1  6  1  0  0  0
  1 32  1  0  0  0
  1  2  2  0  0  0
  2 33  1  0  0  0
  2  3  1  0  0  0
  3 34  1  0  0  0
  3  4  2  0  0  0
  4  5  1  0  0  0
  4 11  1  0  0  0
  5  7  1  0  0  0
  5  6  2  0  0  0
  6 35  1  0  0  0
  7  8  2  0  0  0
  7  9  1  0  0  0
  9 10  2  0  0  0
  9 31  1  0  0  0
 10 11  1  0  0  0
 10 12  1  0  0  0
 11 47  1  0  0  0
 12 13  1  0  0  0
 12 36  1  0  0  0
 12 37  1  0  0  0
 13 38  1  0  0  0
 13 39  1  0  0  0
 13 14  1  0  0  0
 14 16  1  0  0  0
 14 15  2  0  0  0
 16 17  2  0  0  0
 17 21  1  0  0  0
 17 18  1  0  0  0
 18 19  1  0  0  0
 18 46  1  0  0  0
 19 40  1  0  0  0
 19 20  2  0  0  0
 20 22  1  0  0  0
 20 21  1  0  0  0
 22 23  1  0  0  0
 22 41  1  0  0  0
 22 42  1  0  0  0
 23 28  1  0  0  0
 23 24  2  0  0  0
 24 25  1  0  0  0
 24 43  1  0  0  0
 25 26  2  0  0  0
 25 44  1  0  0  0
 26 27  1  0  0  0
 26 30  1  0  0  0
 27 28  2  0  0  0
 27 29  1  0  0  0
 28 45  1  0  0  0
M  CHG  1   9   1
M  END
> <s_m_source_file>
SM18.smi

> <i_m_source_file_index>
1

> <i_lp_mmshare_version>
38013

> <i_f3d_flags>
0

> <s_lp_Force_Field>
OPLS_2005

> <r_lp_Energy>
13.8546902704395

> <b_lp_Chiralities_Consistent>
1

> <s_lp_Variant>
SM18-2

> <r_epik_Ionization_Penalty>
  5.0280

> <r_epik_Ionization_Penalty_Charging>
  2.8000

> <r_epik_Ionization_Penalty_Neutral>
  2.2280

> <r_epik_State_Penalty>
  5.6454

> <r_epik_Charging_Adjusted_Penalty>
8.44539393737597

> <i_epik_Tot_Q>
1

> <i_epik_Tot_abs_Q>
1

$$$$
SM18
                    3D
 Structure written by MMmdl.
 47 50  0  0  1  0            999 V2000
   -6.8893    0.8052    2.1537 C   0  0  0  0  0  0
   -5.8742    0.5853    3.1067 C   0  0  0  0  0  0
   -4.5343    0.8867    2.7942 C   0  0  0  0  0  0
   -4.2194    1.3988    1.5211 C   0  0  0  0  0  0
   -5.2300    1.6315    0.5609 C   0  0  0  0  0  0
   -6.5715    1.3268    0.8832 C   0  0  0  0  0  0
   -4.8339    2.1952   -0.7935 C   0  0  0  0  0  0
   -5.7143    2.3913   -1.6304 O   0  0  0  0  0  0
   -3.4808    2.4715   -1.0438 N   0  3  0  0  0  0
   -2.6162    2.2356   -0.1001 C   0  0  0  0  0  0
   -2.9158    1.7244    1.1549 N   0  0  0  0  0  0
   -1.1391    2.5173   -0.3147 C   0  0  0  0  0  0
   -0.2719    1.2421   -0.2794 C   0  0  0  0  0  0
    1.2167    1.5333   -0.4909 C   0  0  0  0  0  0
    1.7416    2.4819    0.0929 O   0  0  0  0  0  0
    1.8639    0.6958   -1.3230 N   0  0  0  0  0  0
    3.2376    0.6993   -1.6818 C   0  0  0  0  0  0
    4.1448    1.5480   -1.1869 N   0  0  0  0  0  0
    5.4198    1.3117   -1.7051 C   0  0  0  0  0  0
    5.4715    0.2774   -2.6082 C   0  0  0  0  0  0
    3.8979   -0.4418   -2.8425 S   0  0  0  0  0  0
    6.6692   -0.2257   -3.3445 C   0  0  0  0  0  0
    7.1027    0.7302   -4.4395 C   0  0  0  0  0  0
    8.1285    1.6684   -4.1987 C   0  0  0  0  0  0
    8.5236    2.5604   -5.2147 C   0  0  0  0  0  0
    7.8948    2.5181   -6.4743 C   0  0  0  0  0  0
    6.8694    1.5832   -6.7177 C   0  0  0  0  0  0
    6.4743    0.6908   -5.7019 C   0  0  0  0  0  0
    6.2618    1.5416   -7.9273 F   0  0  0  0  0  0
    8.2760    3.3771   -7.4494 F   0  0  0  0  0  0
   -3.1444    2.8777   -2.0091 H   0  0  0  0  0  0
   -7.8385    0.5894    2.3825 H   0  0  0  0  0  0
   -6.1068    0.2150    4.0060 H   0  0  0  0  0  0
   -3.8155    0.7301    3.4716 H   0  0  0  0  0  0
   -7.2953    1.4810    0.2106 H   0  0  0  0  0  0
   -0.8113    3.2057    0.4781 H   0  0  0  0  0  0
   -1.0308    3.0073   -1.2936 H   0  0  0  0  0  0
   -0.3832    0.7500    0.6980 H   0  0  0  0  0  0
   -0.5970    0.5554   -1.0748 H   0  0  0  0  0  0
    6.2516    1.8171   -1.4755 H   0  0  0  0  0  0
    6.4169   -1.2004   -3.7874 H   0  0  0  0  0  0
    7.4894   -0.3523   -2.6224 H   0  0  0  0  0  0
    8.6127    1.7088   -3.2339 H   0  0  0  0  0  0
    9.3087    3.2779   -5.0271 H   0  0  0  0  0  0
    5.6853   -0.0220   -5.8923 H   0  0  0  0  0  0
    3.9881    2.3584   -0.4597 H   0  0  0  0  0  0
   -2.0913    1.5781    1.8681 H   0  0  0  0  0  0
  1  6  1  0  0  0
  1 32  1  0  0  0
  1  2  2  0  0  0
  2 33  1  0  0  0
  2  3  1  0  0  0
  3 34  1  0  0  0
  3  4  2  0  0  0
  4  5  1  0  0  0
  4 11  1  0  0  0
  5  7  1  0  0  0
  5  6  2  0  0  0
  6 35  1  0  0  0
  7  8  2  0  0  0
  7  9  1  0  0  0
  9 10  2  0  0  0
  9 31  1  0  0  0
 10 11  1  0  0  0
 10 12  1  0  0  0
 11 47  1  0  0  0
 12 13  1  0  0  0
 12 36  1  0  0  0
 12 37  1  0  0  0
 13 38  1  0  0  0
 13 39  1  0  0  0
 13 14  1  0  0  0
 14 16  1  0  0  0
 14 15  2  0  0  0
 16 17  2  0  0  0
 17 21  1  0  0  0
 17 18  1  0  0  0
 18 19  1  0  0  0
 18 46  1  0  0  0
 19 40  1  0  0  0
 19 20  2  0  0  0
 20 22  1  0  0  0
 20 21  1  0  0  0
 22 23  1  0  0  0
 22 41  1  0  0  0
 22 42  1  0  0  0
 23 28  1  0  0  0
 23 24  2  0  0  0
 24 25  1  0  0  0
 24 43  1  0  0  0
 25 26  2  0  0  0
 25 44  1  0  0  0
 26 27  1  0  0  0
 26 30  1  0  0  0
 27 28  2  0  0  0
 27 29  1  0  0  0
 28 45  1  0  0  0
M  CHG  1   9   1
M  END
> <s_m_source_file>
SM18.smi

> <i_m_source_file_index>
1

> <i_lp_mmshare_version>
38013

> <i_f3d_flags>
0

> <s_lp_Force_Field>
OPLS_2005

> <r_lp_Energy>
13.8546902704395

> <b_lp_Chiralities_Consistent>
1

> <s_lp_Variant>
SM18-2

> <r_epik_Ionization_Penalty>
  5.0280

> <r_epik_Ionization_Penalty_Charging>
  2.8000

> <r_epik_Ionization_Penalty_Neutral>
  2.2280

> <r_epik_State_Penalty>
  5.6454

> <r_epik_Charging_Adjusted_Penalty>
8.44539393737597

> <i_epik_Tot_Q>
1

> <i_epik_Tot_abs_Q>
1

$$$$
SM18
                    3D
 Structure written by MMmdl.
 46 49  0  0  1  0            999 V2000
   -6.8861    0.7789    2.1438 C   0  0  0  0  0  0
   -5.8722    0.5680    3.1001 C   0  0  0  0  0  0
   -4.5336    0.8783    2.7908 C   0  0  0  0  0  0
   -4.2201    1.3993    1.5210 C   0  0  0  0  0  0
   -5.2284    1.6146    0.5543 C   0  0  0  0  0  0
   -6.5685    1.3006    0.8733 C   0  0  0  0  0  0
   -4.8326    2.1793   -0.7997 C   0  0  0  0  0  0
   -5.7119    2.3675   -1.6395 O   0  0  0  0  0  0
   -3.4807    2.4645   -1.0468 N   0  0  0  0  0  0
   -2.6171    2.2365   -0.1003 C   0  0  0  0  0  0
   -2.9166    1.7253    1.1548 N   0  0  0  0  0  0
   -1.1401    2.5188   -0.3148 C   0  0  0  0  0  0
   -0.2724    1.2440   -0.2793 C   0  0  0  0  0  0
    1.2160    1.5358   -0.4907 C   0  0  0  0  0  0
    1.7406    2.4846    0.0930 O   0  0  0  0  0  0
    1.8637    0.6984   -1.3227 N   0  0  0  0  0  0
    3.2373    0.7024   -1.6814 C   0  0  0  0  0  0
    4.1442    1.5515   -1.1865 N   0  0  0  0  0  0
    5.4193    1.3157   -1.7046 C   0  0  0  0  0  0
    5.4715    0.2812   -2.6075 C   0  0  0  0  0  0
    3.8982   -0.4386   -2.8419 S   0  0  0  0  0  0
    6.6695   -0.2214   -3.3437 C   0  0  0  0  0  0
    7.1026    0.7345   -4.4388 C   0  0  0  0  0  0
    8.1281    1.6731   -4.1981 C   0  0  0  0  0  0
    8.5229    2.5651   -5.2142 C   0  0  0  0  0  0
    7.8942    2.5224   -6.4738 C   0  0  0  0  0  0
    6.8691    1.5871   -6.7171 C   0  0  0  0  0  0
    6.4743    0.6947   -5.7012 C   0  0  0  0  0  0
    6.2616    1.5451   -7.9267 F   0  0  0  0  0  0
    8.2751    3.3815   -7.4489 F   0  0  0  0  0  0
   -2.0921    1.5795    1.8681 H   0  0  0  0  0  0
   -7.8344    0.5564    2.3702 H   0  0  0  0  0  0
   -6.1047    0.1976    3.9994 H   0  0  0  0  0  0
   -3.8157    0.7283    3.4706 H   0  0  0  0  0  0
   -7.2916    1.4485    0.1985 H   0  0  0  0  0  0
   -0.9964    2.9938   -1.2965 H   0  0  0  0  0  0
   -0.7770    3.1926    0.4752 H   0  0  0  0  0  0
   -0.3836    0.7519    0.6982 H   0  0  0  0  0  0
   -0.5972    0.5570   -1.0746 H   0  0  0  0  0  0
    6.2509    1.8214   -1.4750 H   0  0  0  0  0  0
    6.4176   -1.1964   -3.7866 H   0  0  0  0  0  0
    7.4896   -0.3477   -2.6216 H   0  0  0  0  0  0
    8.6122    1.7138   -3.2332 H   0  0  0  0  0  0
    9.3076    3.2830   -5.0266 H   0  0  0  0  0  0
    5.6856   -0.0184   -5.8916 H   0  0  0  0  0  0
    3.9871    2.3619   -0.4594 H   0  0  0  0  0  0
  1  6  2  0  0  0
  1 32  1  0  0  0
  1  2  1  0  0  0
  2 33  1  0  0  0
  2  3  2  0  0  0
  3 34  1  0  0  0
  3  4  1  0  0  0
  4  5  2  0  0  0
  4 11  1  0  0  0
  5  7  1  0  0  0
  5  6  1  0  0  0
  6 35  1  0  0  0
  7  8  2  0  0  0
  7  9  1  0  0  0
  9 10  2  0  0  0
 10 11  1  0  0  0
 10 12  1  0  0  0
 11 31  1  0  0  0
 12 13  1  0  0  0
 12 36  1  0  0  0
 12 37  1  0  0  0
 13 38  1  0  0  0
 13 39  1  0  0  0
 13 14  1  0  0  0
 14 16  1  0  0  0
 14 15  2  0  0  0
 16 17  2  0  0  0
 17 21  1  0  0  0
 17 18  1  0  0  0
 18 19  1  0  0  0
 18 46  1  0  0  0
 19 40  1  0  0  0
 19 20  2  0  0  0
 20 22  1  0  0  0
 20 21  1  0  0  0
 22 23  1  0  0  0
 22 41  1  0  0  0
 22 42  1  0  0  0
 23 28  1  0  0  0
 23 24  2  0  0  0
 24 25  1  0  0  0
 24 43  1  0  0  0
 25 26  2  0  0  0
 25 44  1  0  0  0
 26 27  1  0  0  0
 26 30  1  0  0  0
 27 28  2  0  0  0
 27 29  1  0  0  0
 28 45  1  0  0  0
M  END
> <s_m_source_file>
SM18.smi

> <i_m_source_file_index>
1

> <i_lp_mmshare_version>
38013

> <i_f3d_flags>
0

> <s_lp_Force_Field>
OPLS_2005

> <r_lp_Energy>
13.8546902704395

> <b_lp_Chiralities_Consistent>
1

> <s_lp_Variant>
SM18-2

> <r_lp_tautomer_probability>
5.79965010901507e-05

> <r_epik_Ionization_Penalty>
  4.3326

> <r_epik_Ionization_Penalty_Charging>
  1.4490

> <r_epik_Ionization_Penalty_Neutral>
  2.8836

> <r_epik_State_Penalty>
  5.9788

> <r_epik_Charging_Adjusted_Penalty>
7.42776754782092

> <i_epik_Tot_Q>
0

> <i_epik_Tot_abs_Q>
0

$$$$
SM18
                    3D
 Structure written by MMmdl.
 46 49  0  0  1  0            999 V2000
   -7.4632    0.5655   -0.0682 C   0  0  0  0  0  0
   -7.0475    0.7805   -1.3978 C   0  0  0  0  0  0
   -5.7270    0.4779   -1.7830 C   0  0  0  0  0  0
   -4.8298   -0.0396   -0.8294 C   0  0  0  0  0  0
   -5.2354   -0.2590    0.5065 C   0  0  0  0  0  0
   -6.5621    0.0472    0.8840 C   0  0  0  0  0  0
   -4.2250   -0.8196    1.4933 C   0  0  0  0  0  0
   -4.5804   -1.0114    2.6555 O   0  0  0  0  0  0
   -2.9235   -1.0971    1.0475 N   0  0  0  0  0  0
   -2.6342   -0.8658   -0.2002 C   0  0  0  0  0  0
   -3.5119   -0.3580   -1.1478 N   0  0  0  0  0  0
   -1.2394   -1.1397   -0.7357 C   0  0  0  0  0  0
   -0.5068    0.1398   -1.1891 C   0  0  0  0  0  0
    0.8965   -0.1436   -1.7329 C   0  0  0  0  0  0
    1.0738   -1.0904   -2.4999 O   0  0  0  0  0  0
    1.8637    0.6984   -1.3227 N   0  0  0  0  0  0
    3.2373    0.7024   -1.6814 C   0  0  0  0  0  0
    4.1442    1.5515   -1.1865 N   0  0  0  0  0  0
    5.4193    1.3157   -1.7046 C   0  0  0  0  0  0
    5.4715    0.2812   -2.6075 C   0  0  0  0  0  0
    3.8982   -0.4386   -2.8419 S   0  0  0  0  0  0
    6.6695   -0.2214   -3.3437 C   0  0  0  0  0  0
    7.1026    0.7345   -4.4388 C   0  0  0  0  0  0
    8.1281    1.6731   -4.1981 C   0  0  0  0  0  0
    8.5229    2.5651   -5.2142 C   0  0  0  0  0  0
    7.8942    2.5224   -6.4738 C   0  0  0  0  0  0
    6.8691    1.5871   -6.7171 C   0  0  0  0  0  0
    6.4743    0.6947   -5.7012 C   0  0  0  0  0  0
    6.2616    1.5451   -7.9267 F   0  0  0  0  0  0
    8.2751    3.3815   -7.4489 F   0  0  0  0  0  0
   -3.1423   -0.2087   -2.1730 H   0  0  0  0  0  0
   -8.4023    0.7824    0.1983 H   0  0  0  0  0  0
   -7.6921    1.1483   -2.0681 H   0  0  0  0  0  0
   -5.4339    0.6309   -2.7268 H   0  0  0  0  0  0
   -6.8620   -0.1036    1.8260 H   0  0  0  0  0  0
   -0.6314   -1.6125    0.0497 H   0  0  0  0  0  0
   -1.3053   -1.8126   -1.6033 H   0  0  0  0  0  0
   -1.0845    0.6299   -1.9867 H   0  0  0  0  0  0
   -0.4050    0.8261   -0.3355 H   0  0  0  0  0  0
    6.2509    1.8214   -1.4750 H   0  0  0  0  0  0
    6.4176   -1.1964   -3.7866 H   0  0  0  0  0  0
    7.4896   -0.3477   -2.6216 H   0  0  0  0  0  0
    8.6122    1.7138   -3.2332 H   0  0  0  0  0  0
    9.3076    3.2830   -5.0266 H   0  0  0  0  0  0
    5.6856   -0.0184   -5.8916 H   0  0  0  0  0  0
    3.9871    2.3619   -0.4594 H   0  0  0  0  0  0
  1  6  2  0  0  0
  1 32  1  0  0  0
  1  2  1  0  0  0
  2 33  1  0  0  0
  2  3  2  0  0  0
  3 34  1  0  0  0
  3  4  1  0  0  0
  4  5  2  0  0  0
  4 11  1  0  0  0
  5  7  1  0  0  0
  5  6  1  0  0  0
  6 35  1  0  0  0
  7  8  2  0  0  0
  7  9  1  0  0  0
  9 10  2  0  0  0
 10 11  1  0  0  0
 10 12  1  0  0  0
 11 31  1  0  0  0
 12 13  1  0  0  0
 12 36  1  0  0  0
 12 37  1  0  0  0
 13 38  1  0  0  0
 13 39  1  0  0  0
 13 14  1  0  0  0
 14 16  1  0  0  0
 14 15  2  0  0  0
 16 17  2  0  0  0
 17 21  1  0  0  0
 17 18  1  0  0  0
 18 19  1  0  0  0
 18 46  1  0  0  0
 19 40  1  0  0  0
 19 20  2  0  0  0
 20 22  1  0  0  0
 20 21  1  0  0  0
 22 23  1  0  0  0
 22 41  1  0  0  0
 22 42  1  0  0  0
 23 28  1  0  0  0
 23 24  2  0  0  0
 24 25  1  0  0  0
 24 43  1  0  0  0
 25 26  2  0  0  0
 25 44  1  0  0  0
 26 27  1  0  0  0
 26 30  1  0  0  0
 27 28  2  0  0  0
 27 29  1  0  0  0
 28 45  1  0  0  0
M  END
> <s_m_source_file>
SM18.smi

> <i_m_source_file_index>
1

> <i_lp_mmshare_version>
38013

> <i_f3d_flags>
0

> <s_lp_Force_Field>
OPLS_2005

> <r_lp_Energy>
13.8546902704395

> <b_lp_Chiralities_Consistent>
1

> <s_lp_Variant>
SM18-2

> <r_lp_tautomer_probability>
5.79965010901507e-05

> <r_epik_Ionization_Penalty>
  4.3326

> <r_epik_Ionization_Penalty_Charging>
  1.4490

> <r_epik_Ionization_Penalty_Neutral>
  2.8836

> <r_epik_State_Penalty>
  5.9788

> <r_epik_Charging_Adjusted_Penalty>
7.42776754782092

> <i_epik_Tot_Q>
0

> <i_epik_Tot_abs_Q>
0

$$$$
SM18
                    3D
 Structure written by MMmdl.
 47 50  0  0  1  0            999 V2000
   -7.4436    0.4756    0.0423 C   0  0  0  0  0  0
   -7.0419    0.6994   -1.2902 C   0  0  0  0  0  0
   -5.7230    0.4076   -1.6891 C   0  0  0  0  0  0
   -4.8133   -0.1080   -0.7463 C   0  0  0  0  0  0
   -5.2049   -0.3361    0.5924 C   0  0  0  0  0  0
   -6.5300   -0.0407    0.9837 C   0  0  0  0  0  0
   -4.1815   -0.8941    1.5671 C   0  0  0  0  0  0
   -4.5246   -1.0935    2.7318 O   0  0  0  0  0  0
   -2.8823   -1.1607    1.1078 N   0  0  0  0  0  0
   -2.6064   -0.9219   -0.1414 C   0  0  0  0  0  0
   -3.4964   -0.4160   -1.0784 N   0  0  0  0  0  0
   -1.2148   -1.1839   -0.6912 C   0  0  0  0  0  0
   -0.4953    0.1026   -1.1457 C   0  0  0  0  0  0
    0.9047   -0.1687   -1.7039 C   0  0  0  0  0  0
    1.0813   -1.1109   -2.4768 O   0  3  0  0  0  0
    1.8700    0.6781   -1.2989 N   0  0  0  0  0  0
    3.2401    0.6931   -1.6705 C   0  0  0  0  0  0
    4.1442    1.5515   -1.1865 N   0  0  0  0  0  0
    5.4193    1.3157   -1.7046 C   0  0  0  0  0  0
    5.4715    0.2812   -2.6075 C   0  0  0  0  0  0
    3.9001   -0.4454   -2.8340 S   0  0  0  0  0  0
    6.6695   -0.2214   -3.3437 C   0  0  0  0  0  0
    7.1026    0.7345   -4.4388 C   0  0  0  0  0  0
    8.1281    1.6731   -4.1981 C   0  0  0  0  0  0
    8.5229    2.5651   -5.2142 C   0  0  0  0  0  0
    7.8942    2.5224   -6.4738 C   0  0  0  0  0  0
    6.8691    1.5871   -6.7171 C   0  0  0  0  0  0
    6.4743    0.6947   -5.7012 C   0  0  0  0  0  0
    6.2616    1.5451   -7.9267 F   0  0  0  0  0  0
    8.2751    3.3815   -7.4489 F   0  0  0  0  0  0
   -3.1375   -0.2595   -2.1064 H   0  0  0  0  0  0
   -8.3816    0.6849    0.3186 H   0  0  0  0  0  0
   -7.6952    1.0658   -1.9527 H   0  0  0  0  0  0
   -5.4399    0.5668   -2.6349 H   0  0  0  0  0  0
   -6.8200   -0.1978    1.9278 H   0  0  0  0  0  0
   -0.5963   -1.6560    0.0863 H   0  0  0  0  0  0
   -1.2843   -1.8533   -1.5612 H   0  0  0  0  0  0
   -1.0838    0.5922   -1.9356 H   0  0  0  0  0  0
   -0.3901    0.7858   -0.2900 H   0  0  0  0  0  0
    6.2509    1.8214   -1.4750 H   0  0  0  0  0  0
    6.4176   -1.1964   -3.7866 H   0  0  0  0  0  0
    7.4896   -0.3477   -2.6216 H   0  0  0  0  0  0
    8.6122    1.7138   -3.2332 H   0  0  0  0  0  0
    9.3076    3.2830   -5.0266 H   0  0  0  0  0  0
    5.6856   -0.0184   -5.8916 H   0  0  0  0  0  0
    1.4833    1.4278   -0.5929 H   0  0  0  0  0  0
    0.2355   -1.7532   -2.7633 H   0  0  0  0  0  0
  1  6  2  0  0  0
  1 32  1  0  0  0
  1  2  1  0  0  0
  2 33  1  0  0  0
  2  3  2  0  0  0
  3 34  1  0  0  0
  3  4  1  0  0  0
  4  5  2  0  0  0
  4 11  1  0  0  0
  5  7  1  0  0  0
  5  6  1  0  0  0
  6 35  1  0  0  0
  7  8  2  0  0  0
  7  9  1  0  0  0
  9 10  2  0  0  0
 10 11  1  0  0  0
 10 12  1  0  0  0
 11 31  1  0  0  0
 12 13  1  0  0  0
 12 36  1  0  0  0
 12 37  1  0  0  0
 13 38  1  0  0  0
 13 39  1  0  0  0
 13 14  1  0  0  0
 14 16  1  0  0  0
 14 15  2  0  0  0
 15 47  1  0  0  0
 16 17  1  0  0  0
 16 46  1  0  0  0
 17 21  1  0  0  0
 17 18  2  0  0  0
 18 19  1  0  0  0
 19 40  1  0  0  0
 19 20  2  0  0  0
 20 22  1  0  0  0
 20 21  1  0  0  0
 22 23  1  0  0  0
 22 41  1  0  0  0
 22 42  1  0  0  0
 23 28  1  0  0  0
 23 24  2  0  0  0
 24 25  1  0  0  0
 24 43  1  0  0  0
 25 26  2  0  0  0
 25 44  1  0  0  0
 26 27  1  0  0  0
 26 30  1  0  0  0
 27 28  2  0  0  0
 27 29  1  0  0  0
 28 45  1  0  0  0
M  CHG  1  15   1
M  END
> <s_m_source_file>
SM18.smi

> <i_m_source_file_index>
1

> <i_lp_mmshare_version>
38013

> <i_f3d_flags>
0

> <s_lp_Force_Field>
OPLS_2005

> <r_lp_Energy>
13.8546902704395

> <b_lp_Chiralities_Consistent>
1

> <s_lp_Variant>
SM18-2

> <r_epik_Ionization_Penalty>
  6.9170

> <r_epik_Ionization_Penalty_Charging>
  3.4361

> <r_epik_Ionization_Penalty_Neutral>
  3.4809

> <r_epik_State_Penalty>
  6.2936

> <r_epik_Charging_Adjusted_Penalty>
9.72975715807353

> <i_epik_Tot_Q>
1

> <i_epik_Tot_abs_Q>
1

$$$$
