SM18
                    3D
 Structure written by MMmdl.
 47 50  0  0  1  0            999 V2000
   -7.4314    0.4503   -0.2605 C   0  0  0  0  0  0
   -7.0865    1.0734   -1.4748 C   0  0  0  0  0  0
   -5.7613    1.4918   -1.7038 C   0  0  0  0  0  0
   -4.7692    1.2912   -0.7218 C   0  0  0  0  0  0
   -5.1225    0.6629    0.5024 C   0  0  0  0  0  0
   -6.4515    0.2444    0.7293 C   0  0  0  0  0  0
   -4.0475    0.4613    1.5353 C   0  0  0  0  0  0
   -4.2758   -0.0750    2.6184 O   0  0  0  0  0  0
   -2.8270    0.9098    1.1838 N   0  0  0  0  0  0
   -2.5683    1.5169   -0.0517 C   0  0  0  0  0  0
   -3.4532    1.7176   -0.9812 N   0  0  0  0  0  0
   -1.1111    1.9148   -0.1971 C   0  0  0  0  0  0
   -0.1759    0.7011   -0.3746 C   0  0  0  0  0  0
    1.2967    1.1001   -0.5073 C   0  0  0  0  0  0
    1.7478    2.0127    0.1853 O   0  0  0  0  0  0
    2.0151    0.3926   -1.3994 N   0  0  0  0  0  0
    3.3947    0.5133   -1.7118 C   0  0  0  0  0  0
    4.2366    1.3529   -1.0997 N   0  3  0  0  0  0
    5.5364    1.2482   -1.6000 C   0  0  0  0  0  0
    5.6744    0.3173   -2.6013 C   0  0  0  0  0  0
    4.1553   -0.4679   -2.9543 S   0  0  0  0  0  0
    6.9188   -0.0377   -3.3462 C   0  0  0  0  0  0
    7.2326    0.9688   -4.4366 C   0  0  0  0  0  0
    8.1353    2.0247   -4.1901 C   0  0  0  0  0  0
    8.4211    2.9615   -5.2022 C   0  0  0  0  0  0
    7.8050    2.8470   -6.4636 C   0  0  0  0  0  0
    6.9023    1.7946   -6.7127 C   0  0  0  0  0  0
    6.6167    0.8571   -5.7010 C   0  0  0  0  0  0
    6.3078    1.6828   -7.9243 F   0  0  0  0  0  0
    8.0812    3.7491   -7.4353 F   0  0  0  0  0  0
   -1.9815    0.8060    1.8797 H   0  0  0  0  0  0
   -8.4485    0.1306   -0.0879 H   0  0  0  0  0  0
   -7.8399    1.2304   -2.2325 H   0  0  0  0  0  0
   -5.5080    1.9689   -2.6394 H   0  0  0  0  0  0
   -6.7276   -0.2350    1.6572 H   0  0  0  0  0  0
   -0.9939    2.5615   -1.0792 H   0  0  0  0  0  0
   -0.7881    2.4595    0.7023 H   0  0  0  0  0  0
   -0.2666    0.0376    0.4981 H   0  0  0  0  0  0
   -0.4579    0.1508   -1.2844 H   0  0  0  0  0  0
    1.5305   -0.3949   -1.9952 H   0  0  0  0  0  0
    6.3086    1.8786   -1.1845 H   0  0  0  0  0  0
    7.7686   -0.0652   -2.6483 H   0  0  0  0  0  0
    6.7967   -1.0256   -3.8143 H   0  0  0  0  0  0
    8.6092    2.1204   -3.2243 H   0  0  0  0  0  0
    9.1128    3.7685   -5.0105 H   0  0  0  0  0  0
    5.9220    0.0533   -5.8966 H   0  0  0  0  0  0
    3.8691    2.0171   -0.3035 H   0  0  0  0  0  0
  1  6  1  0  0  0
  1  2  2  0  0  0
  1 32  1  0  0  0
  2  3  1  0  0  0
  2 33  1  0  0  0
  3  4  2  0  0  0
  3 34  1  0  0  0
  4 11  1  0  0  0
  4  5  1  0  0  0
  5  6  2  0  0  0
  5  7  1  0  0  0
  6 35  1  0  0  0
  7  8  2  0  0  0
  7  9  1  0  0  0
  9 31  1  0  0  0
  9 10  1  0  0  0
 10 11  2  0  0  0
 10 12  1  0  0  0
 12 13  1  0  0  0
 12 36  1  0  0  0
 12 37  1  0  0  0
 13 14  1  0  0  0
 13 38  1  0  0  0
 13 39  1  0  0  0
 14 15  2  0  0  0
 14 16  1  0  0  0
 16 17  1  0  0  0
 16 40  1  0  0  0
 17 21  1  0  0  0
 17 18  2  0  0  0
 18 19  1  0  0  0
 18 47  1  0  0  0
 19 20  2  0  0  0
 19 41  1  0  0  0
 20 21  1  0  0  0
 20 22  1  0  0  0
 22 23  1  0  0  0
 22 42  1  0  0  0
 22 43  1  0  0  0
 23 28  1  0  0  0
 23 24  2  0  0  0
 24 25  1  0  0  0
 24 44  1  0  0  0
 25 26  2  0  0  0
 25 45  1  0  0  0
 26 27  1  0  0  0
 26 30  1  0  0  0
 27 28  2  0  0  0
 27 29  1  0  0  0
 28 46  1  0  0  0
M  CHG  1  18   1
M  END
> <s_m_source_file>
SM18.smi

> <i_m_source_file_index>
1

> <i_lp_mmshare_version>
38013

> <i_f3d_flags>
0

> <s_lp_Force_Field>
OPLS_2005

> <r_lp_Energy>
17.4490160392642

> <b_lp_Chiralities_Consistent>
1

> <s_lp_Variant>
SM18-1

> <r_lp_tautomer_probability>
0.883938

> <r_epik_Ionization_Penalty>
  0.4862

> <r_epik_Ionization_Penalty_Charging>
  0.3619

> <r_epik_Ionization_Penalty_Neutral>
  0.1243

> <r_epik_State_Penalty>
  0.5474

> <r_epik_Charging_Adjusted_Penalty>
0.909358789371601

> <i_epik_Tot_Q>
1

> <i_epik_Tot_abs_Q>
1

$$$$
SM18
                    3D
 Structure written by MMmdl.
 46 49  0  0  1  0            999 V2000
   -7.4314    0.4503   -0.2605 C   0  0  0  0  0  0
   -7.0865    1.0734   -1.4748 C   0  0  0  0  0  0
   -5.7613    1.4918   -1.7038 C   0  0  0  0  0  0
   -4.7692    1.2912   -0.7218 C   0  0  0  0  0  0
   -5.1225    0.6629    0.5024 C   0  0  0  0  0  0
   -6.4515    0.2444    0.7293 C   0  0  0  0  0  0
   -4.0475    0.4613    1.5353 C   0  0  0  0  0  0
   -4.2758   -0.0750    2.6184 O   0  0  0  0  0  0
   -2.8270    0.9098    1.1838 N   0  0  0  0  0  0
   -2.5683    1.5169   -0.0517 C   0  0  0  0  0  0
   -3.4532    1.7176   -0.9812 N   0  0  0  0  0  0
   -1.1111    1.9148   -0.1971 C   0  0  0  0  0  0
   -0.1759    0.7011   -0.3746 C   0  0  0  0  0  0
    1.2967    1.1001   -0.5073 C   0  0  0  0  0  0
    1.7478    2.0127    0.1853 O   0  0  0  0  0  0
    2.0151    0.3926   -1.3994 N   0  0  0  0  0  0
    3.3947    0.5133   -1.7118 C   0  0  0  0  0  0
    4.2366    1.3529   -1.0997 N   0  0  0  0  0  0
    5.5364    1.2482   -1.6000 C   0  0  0  0  0  0
    5.6744    0.3173   -2.6013 C   0  0  0  0  0  0
    4.1553   -0.4679   -2.9543 S   0  0  0  0  0  0
    6.9188   -0.0377   -3.3462 C   0  0  0  0  0  0
    7.2326    0.9688   -4.4366 C   0  0  0  0  0  0
    8.1353    2.0247   -4.1901 C   0  0  0  0  0  0
    8.4211    2.9615   -5.2022 C   0  0  0  0  0  0
    7.8050    2.8470   -6.4636 C   0  0  0  0  0  0
    6.9023    1.7946   -6.7127 C   0  0  0  0  0  0
    6.6167    0.8571   -5.7010 C   0  0  0  0  0  0
    6.3078    1.6828   -7.9243 F   0  0  0  0  0  0
    8.0812    3.7491   -7.4353 F   0  0  0  0  0  0
   -1.9815    0.8060    1.8797 H   0  0  0  0  0  0
   -8.4485    0.1306   -0.0879 H   0  0  0  0  0  0
   -7.8399    1.2304   -2.2325 H   0  0  0  0  0  0
   -5.5080    1.9689   -2.6394 H   0  0  0  0  0  0
   -6.7276   -0.2350    1.6572 H   0  0  0  0  0  0
   -0.9939    2.5615   -1.0792 H   0  0  0  0  0  0
   -0.7881    2.4595    0.7023 H   0  0  0  0  0  0
   -0.2666    0.0376    0.4981 H   0  0  0  0  0  0
   -0.4579    0.1508   -1.2844 H   0  0  0  0  0  0
    1.5305   -0.3949   -1.9952 H   0  0  0  0  0  0
    6.3086    1.8786   -1.1845 H   0  0  0  0  0  0
    7.7686   -0.0652   -2.6483 H   0  0  0  0  0  0
    6.7967   -1.0256   -3.8143 H   0  0  0  0  0  0
    8.6092    2.1204   -3.2243 H   0  0  0  0  0  0
    9.1128    3.7685   -5.0105 H   0  0  0  0  0  0
    5.9220    0.0533   -5.8966 H   0  0  0  0  0  0
  1  6  1  0  0  0
  1  2  2  0  0  0
  1 32  1  0  0  0
  2  3  1  0  0  0
  2 33  1  0  0  0
  3  4  2  0  0  0
  3 34  1  0  0  0
  4 11  1  0  0  0
  4  5  1  0  0  0
  5  6  2  0  0  0
  5  7  1  0  0  0
  6 35  1  0  0  0
  7  8  2  0  0  0
  7  9  1  0  0  0
  9 31  1  0  0  0
  9 10  1  0  0  0
 10 11  2  0  0  0
 10 12  1  0  0  0
 12 13  1  0  0  0
 12 36  1  0  0  0
 12 37  1  0  0  0
 13 14  1  0  0  0
 13 38  1  0  0  0
 13 39  1  0  0  0
 14 15  2  0  0  0
 14 16  1  0  0  0
 16 17  1  0  0  0
 16 40  1  0  0  0
 17 21  1  0  0  0
 17 18  2  0  0  0
 18 19  1  0  0  0
 19 20  2  0  0  0
 19 41  1  0  0  0
 20 21  1  0  0  0
 20 22  1  0  0  0
 22 23  1  0  0  0
 22 42  1  0  0  0
 22 43  1  0  0  0
 23 28  1  0  0  0
 23 24  2  0  0  0
 24 25  1  0  0  0
 24 44  1  0  0  0
 25 26  2  0  0  0
 25 45  1  0  0  0
 26 27  1  0  0  0
 26 30  1  0  0  0
 27 28  2  0  0  0
 27 29  1  0  0  0
 28 46  1  0  0  0
M  END
> <s_m_source_file>
SM18.smi

> <i_m_source_file_index>
1

> <i_lp_mmshare_version>
38013

> <i_f3d_flags>
0

> <s_lp_Force_Field>
OPLS_2005

> <r_lp_Energy>
17.4490160392642

> <b_lp_Chiralities_Consistent>
1

> <s_lp_Variant>
SM18-1

> <r_lp_tautomer_probability>
0.883054493714579

> <r_epik_Ionization_Penalty>
  0.5214

> <r_epik_Ionization_Penalty_Charging>
  0.0000

> <r_epik_Ionization_Penalty_Neutral>
  0.5214

> <r_epik_State_Penalty>
  0.6343

> <r_epik_Charging_Adjusted_Penalty>
0.634337119310019

> <i_epik_Tot_Q>
0

> <i_epik_Tot_abs_Q>
0

$$$$
SM18
                    3D
 Structure written by MMmdl.
 48 51  0  0  1  0            999 V2000
   -7.4314    0.4503   -0.2605 C   0  0  0  0  0  0
   -7.0865    1.0734   -1.4748 C   0  0  0  0  0  0
   -5.7613    1.4918   -1.7038 C   0  0  0  0  0  0
   -4.7692    1.2912   -0.7218 C   0  0  0  0  0  0
   -5.1225    0.6629    0.5024 C   0  0  0  0  0  0
   -6.4515    0.2444    0.7293 C   0  0  0  0  0  0
   -4.0475    0.4613    1.5353 C   0  0  0  0  0  0
   -4.2758   -0.0750    2.6184 O   0  0  0  0  0  0
   -2.8270    0.9098    1.1838 N   0  3  0  0  0  0
   -2.5683    1.5169   -0.0517 C   0  0  0  0  0  0
   -3.4532    1.7176   -0.9812 N   0  0  0  0  0  0
   -1.1111    1.9148   -0.1971 C   0  0  0  0  0  0
   -0.1759    0.7011   -0.3746 C   0  0  0  0  0  0
    1.2967    1.1001   -0.5073 C   0  0  0  0  0  0
    1.7478    2.0127    0.1853 O   0  0  0  0  0  0
    2.0151    0.3926   -1.3994 N   0  0  0  0  0  0
    3.3947    0.5133   -1.7118 C   0  0  0  0  0  0
    4.2366    1.3529   -1.0997 N   0  3  0  0  0  0
    5.5364    1.2482   -1.6000 C   0  0  0  0  0  0
    5.6744    0.3173   -2.6013 C   0  0  0  0  0  0
    4.1553   -0.4679   -2.9543 S   0  0  0  0  0  0
    6.9188   -0.0377   -3.3462 C   0  0  0  0  0  0
    7.2326    0.9688   -4.4366 C   0  0  0  0  0  0
    8.1353    2.0247   -4.1901 C   0  0  0  0  0  0
    8.4211    2.9615   -5.2022 C   0  0  0  0  0  0
    7.8050    2.8470   -6.4636 C   0  0  0  0  0  0
    6.9023    1.7946   -6.7127 C   0  0  0  0  0  0
    6.6167    0.8571   -5.7010 C   0  0  0  0  0  0
    6.3078    1.6828   -7.9243 F   0  0  0  0  0  0
    8.0812    3.7491   -7.4353 F   0  0  0  0  0  0
   -1.9815    0.8060    1.8797 H   0  0  0  0  0  0
   -8.4485    0.1306   -0.0879 H   0  0  0  0  0  0
   -7.8399    1.2304   -2.2325 H   0  0  0  0  0  0
   -5.5080    1.9689   -2.6394 H   0  0  0  0  0  0
   -6.7276   -0.2350    1.6572 H   0  0  0  0  0  0
   -0.9939    2.5615   -1.0792 H   0  0  0  0  0  0
   -0.7881    2.4595    0.7023 H   0  0  0  0  0  0
   -0.2666    0.0376    0.4981 H   0  0  0  0  0  0
   -0.4579    0.1508   -1.2844 H   0  0  0  0  0  0
    1.5305   -0.3949   -1.9952 H   0  0  0  0  0  0
    6.3086    1.8786   -1.1845 H   0  0  0  0  0  0
    7.7686   -0.0652   -2.6483 H   0  0  0  0  0  0
    6.7967   -1.0256   -3.8143 H   0  0  0  0  0  0
    8.6092    2.1204   -3.2243 H   0  0  0  0  0  0
    9.1128    3.7685   -5.0105 H   0  0  0  0  0  0
    5.9220    0.0533   -5.8966 H   0  0  0  0  0  0
    3.8691    2.0171   -0.3035 H   0  0  0  0  0  0
   -3.2099    2.1987   -1.9401 H   0  0  0  0  0  0
  1  6  1  0  0  0
  1  2  2  0  0  0
  1 32  1  0  0  0
  2  3  1  0  0  0
  2 33  1  0  0  0
  3  4  2  0  0  0
  3 34  1  0  0  0
  4 11  1  0  0  0
  4  5  1  0  0  0
  5  6  2  0  0  0
  5  7  1  0  0  0
  6 35  1  0  0  0
  7  8  2  0  0  0
  7  9  1  0  0  0
  9 31  1  0  0  0
  9 10  2  0  0  0
 10 11  1  0  0  0
 10 12  1  0  0  0
 11 48  1  0  0  0
 12 13  1  0  0  0
 12 36  1  0  0  0
 12 37  1  0  0  0
 13 14  1  0  0  0
 13 38  1  0  0  0
 13 39  1  0  0  0
 14 15  2  0  0  0
 14 16  1  0  0  0
 16 17  1  0  0  0
 16 40  1  0  0  0
 17 21  1  0  0  0
 17 18  2  0  0  0
 18 19  1  0  0  0
 18 47  1  0  0  0
 19 20  2  0  0  0
 19 41  1  0  0  0
 20 21  1  0  0  0
 20 22  1  0  0  0
 22 23  1  0  0  0
 22 42  1  0  0  0
 22 43  1  0  0  0
 23 28  1  0  0  0
 23 24  2  0  0  0
 24 25  1  0  0  0
 24 44  1  0  0  0
 25 26  2  0  0  0
 25 45  1  0  0  0
 26 27  1  0  0  0
 26 30  1  0  0  0
 27 28  2  0  0  0
 27 29  1  0  0  0
 28 46  1  0  0  0
M  CHG  2   9   1  18   1
M  END
> <s_m_source_file>
SM18.smi

> <i_m_source_file_index>
1

> <i_lp_mmshare_version>
38013

> <i_f3d_flags>
0

> <s_lp_Force_Field>
OPLS_2005

> <r_lp_Energy>
17.4490160392642

> <b_lp_Chiralities_Consistent>
1

> <s_lp_Variant>
SM18-1

> <r_epik_Ionization_Penalty>
  2.3759

> <r_epik_Ionization_Penalty_Charging>
  2.3049

> <r_epik_Ionization_Penalty_Neutral>
  0.0710

> <r_epik_State_Penalty>
  1.2435

> <r_epik_Charging_Adjusted_Penalty>
3.54837093414005

> <i_epik_Tot_Q>
2

> <i_epik_Tot_abs_Q>
2

$$$$
SM18
                    3D
 Structure written by MMmdl.
 47 50  0  0  1  0            999 V2000
   -7.4314    0.4503   -0.2605 C   0  0  0  0  0  0
   -7.0865    1.0734   -1.4748 C   0  0  0  0  0  0
   -5.7613    1.4918   -1.7038 C   0  0  0  0  0  0
   -4.7692    1.2912   -0.7218 C   0  0  0  0  0  0
   -5.1225    0.6629    0.5024 C   0  0  0  0  0  0
   -6.4515    0.2444    0.7293 C   0  0  0  0  0  0
   -4.0475    0.4613    1.5353 C   0  0  0  0  0  0
   -4.2758   -0.0750    2.6184 O   0  0  0  0  0  0
   -2.8270    0.9098    1.1838 N   0  3  0  0  0  0
   -2.5683    1.5169   -0.0517 C   0  0  0  0  0  0
   -3.4532    1.7176   -0.9812 N   0  0  0  0  0  0
   -1.1111    1.9148   -0.1971 C   0  0  0  0  0  0
   -0.1759    0.7011   -0.3746 C   0  0  0  0  0  0
    1.2967    1.1001   -0.5073 C   0  0  0  0  0  0
    1.7478    2.0127    0.1853 O   0  0  0  0  0  0
    2.0151    0.3926   -1.3994 N   0  0  0  0  0  0
    3.3947    0.5133   -1.7118 C   0  0  0  0  0  0
    4.2366    1.3529   -1.0997 N   0  0  0  0  0  0
    5.5364    1.2482   -1.6000 C   0  0  0  0  0  0
    5.6744    0.3173   -2.6013 C   0  0  0  0  0  0
    4.1553   -0.4679   -2.9543 S   0  0  0  0  0  0
    6.9188   -0.0377   -3.3462 C   0  0  0  0  0  0
    7.2326    0.9688   -4.4366 C   0  0  0  0  0  0
    8.1353    2.0247   -4.1901 C   0  0  0  0  0  0
    8.4211    2.9615   -5.2022 C   0  0  0  0  0  0
    7.8050    2.8470   -6.4636 C   0  0  0  0  0  0
    6.9023    1.7946   -6.7127 C   0  0  0  0  0  0
    6.6167    0.8571   -5.7010 C   0  0  0  0  0  0
    6.3078    1.6828   -7.9243 F   0  0  0  0  0  0
    8.0812    3.7491   -7.4353 F   0  0  0  0  0  0
   -1.9815    0.8060    1.8797 H   0  0  0  0  0  0
   -8.4485    0.1306   -0.0879 H   0  0  0  0  0  0
   -7.8399    1.2304   -2.2325 H   0  0  0  0  0  0
   -5.5080    1.9689   -2.6394 H   0  0  0  0  0  0
   -6.7276   -0.2350    1.6572 H   0  0  0  0  0  0
   -0.9939    2.5615   -1.0792 H   0  0  0  0  0  0
   -0.7881    2.4595    0.7023 H   0  0  0  0  0  0
   -0.2666    0.0376    0.4981 H   0  0  0  0  0  0
   -0.4579    0.1508   -1.2844 H   0  0  0  0  0  0
    1.5305   -0.3949   -1.9952 H   0  0  0  0  0  0
    6.3086    1.8786   -1.1845 H   0  0  0  0  0  0
    7.7686   -0.0652   -2.6483 H   0  0  0  0  0  0
    6.7967   -1.0256   -3.8143 H   0  0  0  0  0  0
    8.6092    2.1204   -3.2243 H   0  0  0  0  0  0
    9.1128    3.7685   -5.0105 H   0  0  0  0  0  0
    5.9220    0.0533   -5.8966 H   0  0  0  0  0  0
   -3.2099    2.1987   -1.9401 H   0  0  0  0  0  0
  1  6  1  0  0  0
  1  2  2  0  0  0
  1 32  1  0  0  0
  2  3  1  0  0  0
  2 33  1  0  0  0
  3  4  2  0  0  0
  3 34  1  0  0  0
  4 11  1  0  0  0
  4  5  1  0  0  0
  5  6  2  0  0  0
  5  7  1  0  0  0
  6 35  1  0  0  0
  7  8  2  0  0  0
  7  9  1  0  0  0
  9 31  1  0  0  0
  9 10  2  0  0  0
 10 11  1  0  0  0
 10 12  1  0  0  0
 11 47  1  0  0  0
 12 13  1  0  0  0
 12 36  1  0  0  0
 12 37  1  0  0  0
 13 14  1  0  0  0
 13 38  1  0  0  0
 13 39  1  0  0  0
 14 15  2  0  0  0
 14 16  1  0  0  0
 16 17  1  0  0  0
 16 40  1  0  0  0
 17 21  1  0  0  0
 17 18  2  0  0  0
 18 19  1  0  0  0
 19 20  2  0  0  0
 19 41  1  0  0  0
 20 21  1  0  0  0
 20 22  1  0  0  0
 22 23  1  0  0  0
 22 42  1  0  0  0
 22 43  1  0  0  0
 23 28  1  0  0  0
 23 24  2  0  0  0
 24 25  1  0  0  0
 24 44  1  0  0  0
 25 26  2  0  0  0
 25 45  1  0  0  0
 26 27  1  0  0  0
 26 30  1  0  0  0
 27 28  2  0  0  0
 27 29  1  0  0  0
 28 46  1  0  0  0
M  CHG  1   9   1
M  END
> <s_m_source_file>
SM18.smi

> <i_m_source_file_index>
1

> <i_lp_mmshare_version>
38013

> <i_f3d_flags>
0

> <s_lp_Force_Field>
OPLS_2005

> <r_lp_Energy>
17.4490160392642

> <b_lp_Chiralities_Consistent>
1

> <s_lp_Variant>
SM18-1

> <r_epik_Ionization_Penalty>
  2.3592

> <r_epik_Ionization_Penalty_Charging>
  1.8940

> <r_epik_Ionization_Penalty_Neutral>
  0.4653

> <r_epik_State_Penalty>
  1.2795

> <r_epik_Charging_Adjusted_Penalty>
3.17345996347219

> <i_epik_Tot_Q>
1

> <i_epik_Tot_abs_Q>
1

$$$$
SM18
                    3D
 Structure written by MMmdl.
 47 50  0  0  1  0            999 V2000
   -7.4312    0.4498   -0.2607 C   0  0  0  0  0  0
   -7.0864    1.0729   -1.4751 C   0  0  0  0  0  0
   -5.7613    1.4918   -1.7038 C   0  0  0  0  0  0
   -4.7692    1.2912   -0.7218 C   0  0  0  0  0  0
   -5.1225    0.6629    0.5024 C   0  0  0  0  0  0
   -6.4515    0.2442    0.7292 C   0  0  0  0  0  0
   -4.0475    0.4613    1.5353 C   0  0  0  0  0  0
   -4.2758   -0.0750    2.6184 O   0  0  0  0  0  0
   -2.8278    0.9129    1.1852 N   0  0  0  0  0  0
   -2.5691    1.5200   -0.0503 C   0  0  0  0  0  0
   -3.4536    1.7192   -0.9805 N   0  0  0  0  0  0
   -1.1145    1.9294   -0.1907 C   0  0  0  0  0  0
   -0.1688    0.7230   -0.3622 C   0  0  0  0  0  0
    1.3011    1.1337   -0.4897 C   0  0  0  0  0  0
    1.7420    2.0512    0.2030 O   0  0  0  0  0  0
    2.0287    0.4305   -1.3776 N   0  0  0  0  0  0
    3.4086    0.5618   -1.6847 C   0  0  0  0  0  0
    4.2412    1.4093   -1.0707 N   0  3  0  0  0  0
    5.5438    1.3142   -1.5656 C   0  0  0  0  0  0
    5.6933    0.3827   -2.5647 C   0  0  0  0  0  0
    4.1821   -0.4154   -2.9223 S   0  0  0  0  0  0
    6.9435    0.0365   -3.3039 C   0  0  0  0  0  0
    7.2535    1.0436   -4.3949 C   0  0  0  0  0  0
    8.1466    2.1072   -4.1468 C   0  0  0  0  0  0
    8.4289    3.0446   -5.1594 C   0  0  0  0  0  0
    7.8189    2.9228   -6.4230 C   0  0  0  0  0  0
    6.9257    1.8626   -6.6738 C   0  0  0  0  0  0
    6.6437    0.9247   -5.6616 C   0  0  0  0  0  0
    6.3370    1.7438   -7.8876 F   0  0  0  0  0  0
    8.0916    3.8253   -7.3952 F   0  0  0  0  0  0
   -3.2103    2.2002   -1.9394 H   0  0  0  0  0  0
   -8.3729    0.1532   -0.1014 H   0  0  0  0  0  0
   -7.7847    1.2180   -2.1760 H   0  0  0  0  0  0
   -5.5188    1.9342   -2.5672 H   0  0  0  0  0  0
   -6.6973   -0.1981    1.5917 H   0  0  0  0  0  0
   -0.8340    2.4895    0.7136 H   0  0  0  0  0  0
   -1.0334    2.5867   -1.0690 H   0  0  0  0  0  0
   -0.2577    0.0604    0.5113 H   0  0  0  0  0  0
   -0.4427    0.1688   -1.2721 H   0  0  0  0  0  0
    1.5529   -0.3620   -1.9739 H   0  0  0  0  0  0
    6.3309    1.8496   -1.2593 H   0  0  0  0  0  0
    7.7907    0.0172   -2.6026 H   0  0  0  0  0  0
    6.8314   -0.9531   -3.7708 H   0  0  0  0  0  0
    8.6159    2.2085   -3.1792 H   0  0  0  0  0  0
    9.1133    3.8574   -4.9664 H   0  0  0  0  0  0
    5.9563    0.1149   -5.8585 H   0  0  0  0  0  0
    3.8651    2.0719   -0.2773 H   0  0  0  0  0  0
  1  6  2  0  0  0
  1 32  1  0  0  0
  1  2  1  0  0  0
  2 33  1  0  0  0
  2  3  2  0  0  0
  3 34  1  0  0  0
  3  4  1  0  0  0
  4  5  2  0  0  0
  4 11  1  0  0  0
  5  7  1  0  0  0
  5  6  1  0  0  0
  6 35  1  0  0  0
  7  8  2  0  0  0
  7  9  1  0  0  0
  9 10  2  0  0  0
 10 11  1  0  0  0
 10 12  1  0  0  0
 11 31  1  0  0  0
 12 13  1  0  0  0
 12 36  1  0  0  0
 12 37  1  0  0  0
 13 14  1  0  0  0
 13 38  1  0  0  0
 13 39  1  0  0  0
 14 15  2  0  0  0
 14 16  1  0  0  0
 16 17  1  0  0  0
 16 40  1  0  0  0
 17 21  1  0  0  0
 17 18  2  0  0  0
 18 19  1  0  0  0
 18 47  1  0  0  0
 19 20  2  0  0  0
 19 41  1  0  0  0
 20 21  1  0  0  0
 20 22  1  0  0  0
 22 23  1  0  0  0
 22 42  1  0  0  0
 22 43  1  0  0  0
 23 28  1  0  0  0
 23 24  2  0  0  0
 24 25  1  0  0  0
 24 44  1  0  0  0
 25 26  2  0  0  0
 25 45  1  0  0  0
 26 27  1  0  0  0
 26 30  1  0  0  0
 27 28  2  0  0  0
 27 29  1  0  0  0
 28 46  1  0  0  0
M  CHG  1  18   1
M  END
> <s_m_source_file>
SM18.smi

> <i_m_source_file_index>
1

> <i_lp_mmshare_version>
38013

> <i_f3d_flags>
0

> <s_lp_Force_Field>
OPLS_2005

> <r_lp_Energy>
17.4490160392642

> <b_lp_Chiralities_Consistent>
1

> <s_lp_Variant>
SM18-1

> <r_lp_tautomer_probability>
0.116051

> <r_epik_Ionization_Penalty>
  0.7744

> <r_epik_Ionization_Penalty_Charging>
  0.3619

> <r_epik_Ionization_Penalty_Neutral>
  0.4125

> <r_epik_State_Penalty>
  2.6516

> <r_epik_Charging_Adjusted_Penalty>
3.01352878494227

> <i_epik_Tot_Q>
1

> <i_epik_Tot_abs_Q>
1

$$$$
SM18
                    3D
 Structure written by MMmdl.
 46 49  0  0  1  0            999 V2000
   -7.4312    0.4498   -0.2607 C   0  0  0  0  0  0
   -7.0864    1.0729   -1.4751 C   0  0  0  0  0  0
   -5.7613    1.4918   -1.7038 C   0  0  0  0  0  0
   -4.7692    1.2912   -0.7218 C   0  0  0  0  0  0
   -5.1225    0.6629    0.5024 C   0  0  0  0  0  0
   -6.4515    0.2442    0.7292 C   0  0  0  0  0  0
   -4.0475    0.4613    1.5353 C   0  0  0  0  0  0
   -4.2758   -0.0750    2.6184 O   0  0  0  0  0  0
   -2.8278    0.9129    1.1852 N   0  0  0  0  0  0
   -2.5691    1.5200   -0.0503 C   0  0  0  0  0  0
   -3.4536    1.7192   -0.9805 N   0  0  0  0  0  0
   -1.1145    1.9294   -0.1907 C   0  0  0  0  0  0
   -0.1688    0.7230   -0.3622 C   0  0  0  0  0  0
    1.3011    1.1337   -0.4897 C   0  0  0  0  0  0
    1.7420    2.0512    0.2030 O   0  0  0  0  0  0
    2.0287    0.4305   -1.3776 N   0  0  0  0  0  0
    3.4086    0.5618   -1.6847 C   0  0  0  0  0  0
    4.2412    1.4093   -1.0707 N   0  0  0  0  0  0
    5.5438    1.3142   -1.5656 C   0  0  0  0  0  0
    5.6933    0.3827   -2.5647 C   0  0  0  0  0  0
    4.1821   -0.4154   -2.9223 S   0  0  0  0  0  0
    6.9435    0.0365   -3.3039 C   0  0  0  0  0  0
    7.2535    1.0436   -4.3949 C   0  0  0  0  0  0
    8.1466    2.1072   -4.1468 C   0  0  0  0  0  0
    8.4289    3.0446   -5.1594 C   0  0  0  0  0  0
    7.8189    2.9228   -6.4230 C   0  0  0  0  0  0
    6.9257    1.8626   -6.6738 C   0  0  0  0  0  0
    6.6437    0.9247   -5.6616 C   0  0  0  0  0  0
    6.3370    1.7438   -7.8876 F   0  0  0  0  0  0
    8.0916    3.8253   -7.3952 F   0  0  0  0  0  0
   -3.2103    2.2002   -1.9394 H   0  0  0  0  0  0
   -8.3729    0.1532   -0.1014 H   0  0  0  0  0  0
   -7.7847    1.2180   -2.1760 H   0  0  0  0  0  0
   -5.5188    1.9342   -2.5672 H   0  0  0  0  0  0
   -6.6973   -0.1981    1.5917 H   0  0  0  0  0  0
   -0.8340    2.4895    0.7136 H   0  0  0  0  0  0
   -1.0334    2.5867   -1.0690 H   0  0  0  0  0  0
   -0.2577    0.0604    0.5113 H   0  0  0  0  0  0
   -0.4427    0.1688   -1.2721 H   0  0  0  0  0  0
    1.5529   -0.3620   -1.9739 H   0  0  0  0  0  0
    6.3309    1.8496   -1.2593 H   0  0  0  0  0  0
    7.7907    0.0172   -2.6026 H   0  0  0  0  0  0
    6.8314   -0.9531   -3.7708 H   0  0  0  0  0  0
    8.6159    2.2085   -3.1792 H   0  0  0  0  0  0
    9.1133    3.8574   -4.9664 H   0  0  0  0  0  0
    5.9563    0.1149   -5.8585 H   0  0  0  0  0  0
  1  6  2  0  0  0
  1 32  1  0  0  0
  1  2  1  0  0  0
  2 33  1  0  0  0
  2  3  2  0  0  0
  3 34  1  0  0  0
  3  4  1  0  0  0
  4  5  2  0  0  0
  4 11  1  0  0  0
  5  7  1  0  0  0
  5  6  1  0  0  0
  6 35  1  0  0  0
  7  8  2  0  0  0
  7  9  1  0  0  0
  9 10  2  0  0  0
 10 11  1  0  0  0
 10 12  1  0  0  0
 11 31  1  0  0  0
 12 13  1  0  0  0
 12 36  1  0  0  0
 12 37  1  0  0  0
 13 14  1  0  0  0
 13 38  1  0  0  0
 13 39  1  0  0  0
 14 15  2  0  0  0
 14 16  1  0  0  0
 16 17  1  0  0  0
 16 40  1  0  0  0
 17 21  1  0  0  0
 17 18  2  0  0  0
 18 19  1  0  0  0
 19 20  2  0  0  0
 19 41  1  0  0  0
 20 21  1  0  0  0
 20 22  1  0  0  0
 22 23  1  0  0  0
 22 42  1  0  0  0
 22 43  1  0  0  0
 23 28  1  0  0  0
 23 24  2  0  0  0
 24 25  1  0  0  0
 24 44  1  0  0  0
 25 26  2  0  0  0
 25 45  1  0  0  0
 26 27  1  0  0  0
 26 30  1  0  0  0
 27 28  2  0  0  0
 27 29  1  0  0  0
 28 46  1  0  0  0
M  END
> <s_m_source_file>
SM18.smi

> <i_m_source_file_index>
1

> <i_lp_mmshare_version>
38013

> <i_f3d_flags>
0

> <s_lp_Force_Field>
OPLS_2005

> <r_lp_Energy>
17.4490160392642

> <b_lp_Chiralities_Consistent>
1

> <s_lp_Variant>
SM18-1

> <r_lp_tautomer_probability>
0.115935005679211

> <r_epik_Ionization_Penalty>
  0.8220

> <r_epik_Ionization_Penalty_Charging>
  0.0000

> <r_epik_Ionization_Penalty_Neutral>
  0.8220

> <r_epik_State_Penalty>
  2.7104

> <r_epik_Charging_Adjusted_Penalty>
2.7104129068724

> <i_epik_Tot_Q>
0

> <i_epik_Tot_abs_Q>
0

$$$$
SM18
                    3D
 Structure written by MMmdl.
 47 50  0  0  1  0            999 V2000
   -7.4314    0.4503   -0.2605 C   0  0  0  0  0  0
   -7.0865    1.0734   -1.4748 C   0  0  0  0  0  0
   -5.7613    1.4918   -1.7038 C   0  0  0  0  0  0
   -4.7692    1.2912   -0.7218 C   0  0  0  0  0  0
   -5.1225    0.6629    0.5024 C   0  0  0  0  0  0
   -6.4515    0.2444    0.7293 C   0  0  0  0  0  0
   -4.0475    0.4613    1.5353 C   0  0  0  0  0  0
   -4.2758   -0.0750    2.6184 O   0  0  0  0  0  0
   -2.8270    0.9098    1.1838 N   0  0  0  0  0  0
   -2.5683    1.5169   -0.0517 C   0  0  0  0  0  0
   -3.4532    1.7176   -0.9812 N   0  0  0  0  0  0
   -1.1111    1.9148   -0.1971 C   0  0  0  0  0  0
   -0.1759    0.7011   -0.3746 C   0  0  0  0  0  0
    1.2967    1.1001   -0.5073 C   0  0  0  0  0  0
    1.7478    2.0127    0.1853 O   0  3  0  0  0  0
    2.0151    0.3926   -1.3994 N   0  0  0  0  0  0
    3.3947    0.5133   -1.7118 C   0  0  0  0  0  0
    4.2366    1.3529   -1.0997 N   0  0  0  0  0  0
    5.5364    1.2482   -1.6000 C   0  0  0  0  0  0
    5.6744    0.3173   -2.6013 C   0  0  0  0  0  0
    4.1553   -0.4679   -2.9543 S   0  0  0  0  0  0
    6.9188   -0.0377   -3.3462 C   0  0  0  0  0  0
    7.2326    0.9688   -4.4366 C   0  0  0  0  0  0
    8.1353    2.0247   -4.1901 C   0  0  0  0  0  0
    8.4211    2.9615   -5.2022 C   0  0  0  0  0  0
    7.8050    2.8470   -6.4636 C   0  0  0  0  0  0
    6.9023    1.7946   -6.7127 C   0  0  0  0  0  0
    6.6167    0.8571   -5.7010 C   0  0  0  0  0  0
    6.3078    1.6828   -7.9243 F   0  0  0  0  0  0
    8.0812    3.7491   -7.4353 F   0  0  0  0  0  0
   -1.9815    0.8060    1.8797 H   0  0  0  0  0  0
   -8.4485    0.1306   -0.0879 H   0  0  0  0  0  0
   -7.8399    1.2304   -2.2325 H   0  0  0  0  0  0
   -5.5080    1.9689   -2.6394 H   0  0  0  0  0  0
   -6.7276   -0.2350    1.6572 H   0  0  0  0  0  0
   -0.9939    2.5615   -1.0792 H   0  0  0  0  0  0
   -0.7881    2.4595    0.7023 H   0  0  0  0  0  0
   -0.2666    0.0376    0.4981 H   0  0  0  0  0  0
   -0.4579    0.1508   -1.2844 H   0  0  0  0  0  0
    1.5305   -0.3949   -1.9952 H   0  0  0  0  0  0
    6.3086    1.8786   -1.1845 H   0  0  0  0  0  0
    7.7686   -0.0652   -2.6483 H   0  0  0  0  0  0
    6.7967   -1.0256   -3.8143 H   0  0  0  0  0  0
    8.6092    2.1204   -3.2243 H   0  0  0  0  0  0
    9.1128    3.7685   -5.0105 H   0  0  0  0  0  0
    5.9220    0.0533   -5.8966 H   0  0  0  0  0  0
    2.8064    2.2984    0.0971 H   0  0  0  0  0  0
  1  6  1  0  0  0
  1  2  2  0  0  0
  1 32  1  0  0  0
  2  3  1  0  0  0
  2 33  1  0  0  0
  3  4  2  0  0  0
  3 34  1  0  0  0
  4 11  1  0  0  0
  4  5  1  0  0  0
  5  6  2  0  0  0
  5  7  1  0  0  0
  6 35  1  0  0  0
  7  8  2  0  0  0
  7  9  1  0  0  0
  9 31  1  0  0  0
  9 10  1  0  0  0
 10 11  2  0  0  0
 10 12  1  0  0  0
 12 13  1  0  0  0
 12 36  1  0  0  0
 12 37  1  0  0  0
 13 14  1  0  0  0
 13 38  1  0  0  0
 13 39  1  0  0  0
 14 15  2  0  0  0
 14 16  1  0  0  0
 15 47  1  0  0  0
 16 17  1  0  0  0
 16 40  1  0  0  0
 17 21  1  0  0  0
 17 18  2  0  0  0
 18 19  1  0  0  0
 19 20  2  0  0  0
 19 41  1  0  0  0
 20 21  1  0  0  0
 20 22  1  0  0  0
 22 23  1  0  0  0
 22 42  1  0  0  0
 22 43  1  0  0  0
 23 28  1  0  0  0
 23 24  2  0  0  0
 24 25  1  0  0  0
 24 44  1  0  0  0
 25 26  2  0  0  0
 25 45  1  0  0  0
 26 27  1  0  0  0
 26 30  1  0  0  0
 27 28  2  0  0  0
 27 29  1  0  0  0
 28 46  1  0  0  0
M  CHG  1  15   1
M  END
> <s_m_source_file>
SM18.smi

> <i_m_source_file_index>
1

> <i_lp_mmshare_version>
38013

> <i_f3d_flags>
0

> <s_lp_Force_Field>
OPLS_2005

> <r_lp_Energy>
17.4490160392642

> <b_lp_Chiralities_Consistent>
1

> <s_lp_Variant>
SM18-1

> <r_epik_Ionization_Penalty>
  6.4584

> <r_epik_Ionization_Penalty_Charging>
  3.5722

> <r_epik_Ionization_Penalty_Neutral>
  2.8862

> <r_epik_State_Penalty>
  4.4446

> <r_epik_Charging_Adjusted_Penalty>
8.01678242823298

> <i_epik_Tot_Q>
1

> <i_epik_Tot_abs_Q>
1

$$$$
SM18
                    3D
 Structure written by MMmdl.
 47 50  0  0  1  0            999 V2000
   -6.9016    0.8338    2.1186 C   0  0  0  0  0  0
   -5.8898    0.6118    3.0745 C   0  0  0  0  0  0
   -4.5484    0.9108    2.7660 C   0  0  0  0  0  0
   -4.2288    1.4228    1.4940 C   0  0  0  0  0  0
   -5.2362    1.6576    0.5309 C   0  0  0  0  0  0
   -6.5792    1.3553    0.8491 C   0  0  0  0  0  0
   -4.8352    2.2210   -0.8221 C   0  0  0  0  0  0
   -5.7127    2.4189   -1.6615 O   0  0  0  0  0  0
   -3.4808    2.4949   -1.0684 N   0  0  0  0  0  0
   -2.6194    2.2572   -0.1223 C   0  0  0  0  0  0
   -2.9236    1.7461    1.1317 N   0  0  0  0  0  0
   -1.1411    2.5363   -0.3325 C   0  0  0  0  0  0
   -0.2763    1.2595   -0.2950 C   0  0  0  0  0  0
    1.2133    1.5482   -0.5020 C   0  0  0  0  0  0
    1.7383    2.4956    0.0836 O   0  0  0  0  0  0
    1.8615    0.7098   -1.3325 N   0  0  0  0  0  0
    3.2362    0.7109   -1.6873 C   0  0  0  0  0  0
    4.1458    1.5497   -1.1801 N   0  3  0  0  0  0
    5.4207    1.3156   -1.6998 C   0  0  0  0  0  0
    5.4713    0.2876   -2.6102 C   0  0  0  0  0  0
    3.8978   -0.4310   -2.8464 S   0  0  0  0  0  0
    6.6686   -0.2116   -3.3499 C   0  0  0  0  0  0
    7.1032    0.7515   -4.4381 C   0  0  0  0  0  0
    8.1301    1.6869   -4.1906 C   0  0  0  0  0  0
    8.5263    2.5855   -5.2002 C   0  0  0  0  0  0
    7.8975    2.5529   -6.4601 C   0  0  0  0  0  0
    6.8711    1.6209   -6.7102 C   0  0  0  0  0  0
    6.4749    0.7217   -5.7008 C   0  0  0  0  0  0
    6.2636    1.5885   -7.9201 F   0  0  0  0  0  0
    8.2798    3.4183   -7.4291 F   0  0  0  0  0  0
   -3.1408    2.9008   -2.0326 H   0  0  0  0  0  0
   -7.8519    0.6196    2.3445 H   0  0  0  0  0  0
   -6.1257    0.2416    3.9730 H   0  0  0  0  0  0
   -3.8319    0.7527    3.4455 H   0  0  0  0  0  0
   -7.3008    1.5109    0.1745 H   0  0  0  0  0  0
   -0.8144    3.2238    0.4616 H   0  0  0  0  0  0
   -1.0292    3.0264   -1.3109 H   0  0  0  0  0  0
   -0.3914    0.7673    0.6820 H   0  0  0  0  0  0
   -0.6004    0.5737   -1.0916 H   0  0  0  0  0  0
    1.3131   -0.1022   -1.8325 H   0  0  0  0  0  0
    6.2525    1.8202   -1.4687 H   0  0  0  0  0  0
    7.5061   -0.3393   -2.6483 H   0  0  0  0  0  0
    6.4329   -1.1781   -3.8194 H   0  0  0  0  0  0
    8.6142    1.7199   -3.2254 H   0  0  0  0  0  0
    9.3121    3.3008   -5.0075 H   0  0  0  0  0  0
    5.6851    0.0112   -5.8963 H   0  0  0  0  0  0
    3.8438    2.3084   -0.4431 H   0  0  0  0  0  0
  1  6  2  0  0  0
  1 32  1  0  0  0
  1  2  1  0  0  0
  2 33  1  0  0  0
  2  3  2  0  0  0
  3 34  1  0  0  0
  3  4  1  0  0  0
  4  5  2  0  0  0
  4 11  1  0  0  0
  5  7  1  0  0  0
  5  6  1  0  0  0
  6 35  1  0  0  0
  7  8  2  0  0  0
  7  9  1  0  0  0
  9 10  1  0  0  0
  9 31  1  0  0  0
 10 11  2  0  0  0
 10 12  1  0  0  0
 12 13  1  0  0  0
 12 36  1  0  0  0
 12 37  1  0  0  0
 13 14  1  0  0  0
 13 38  1  0  0  0
 13 39  1  0  0  0
 14 15  2  0  0  0
 14 16  1  0  0  0
 16 17  1  0  0  0
 16 40  1  0  0  0
 17 21  1  0  0  0
 17 18  2  0  0  0
 18 19  1  0  0  0
 18 47  1  0  0  0
 19 20  2  0  0  0
 19 41  1  0  0  0
 20 21  1  0  0  0
 20 22  1  0  0  0
 22 23  1  0  0  0
 22 42  1  0  0  0
 22 43  1  0  0  0
 23 28  1  0  0  0
 23 24  2  0  0  0
 24 25  1  0  0  0
 24 44  1  0  0  0
 25 26  2  0  0  0
 25 45  1  0  0  0
 26 27  1  0  0  0
 26 30  1  0  0  0
 27 28  2  0  0  0
 27 29  1  0  0  0
 28 46  1  0  0  0
M  CHG  1  18   1
M  END
> <s_m_source_file>
SM18.smi

> <i_m_source_file_index>
1

> <i_lp_mmshare_version>
38013

> <i_f3d_flags>
0

> <s_lp_Force_Field>
OPLS_2005

> <r_lp_Energy>
13.8546902704395

> <b_lp_Chiralities_Consistent>
1

> <s_lp_Variant>
SM18-2

> <r_lp_tautomer_probability>
0.883938

> <r_epik_Ionization_Penalty>
  0.4862

> <r_epik_Ionization_Penalty_Charging>
  0.3619

> <r_epik_Ionization_Penalty_Neutral>
  0.1243

> <r_epik_State_Penalty>
  0.5474

> <r_epik_Charging_Adjusted_Penalty>
0.909358789371602

> <i_epik_Tot_Q>
1

> <i_epik_Tot_abs_Q>
1

$$$$
SM18
                    3D
 Structure written by MMmdl.
 46 49  0  0  1  0            999 V2000
   -6.9016    0.8338    2.1186 C   0  0  0  0  0  0
   -5.8898    0.6118    3.0745 C   0  0  0  0  0  0
   -4.5484    0.9108    2.7660 C   0  0  0  0  0  0
   -4.2288    1.4228    1.4940 C   0  0  0  0  0  0
   -5.2362    1.6576    0.5309 C   0  0  0  0  0  0
   -6.5792    1.3553    0.8491 C   0  0  0  0  0  0
   -4.8352    2.2210   -0.8221 C   0  0  0  0  0  0
   -5.7127    2.4189   -1.6615 O   0  0  0  0  0  0
   -3.4808    2.4949   -1.0684 N   0  0  0  0  0  0
   -2.6194    2.2572   -0.1223 C   0  0  0  0  0  0
   -2.9236    1.7461    1.1317 N   0  0  0  0  0  0
   -1.1411    2.5363   -0.3325 C   0  0  0  0  0  0
   -0.2763    1.2595   -0.2950 C   0  0  0  0  0  0
    1.2133    1.5482   -0.5020 C   0  0  0  0  0  0
    1.7383    2.4956    0.0836 O   0  0  0  0  0  0
    1.8615    0.7098   -1.3325 N   0  0  0  0  0  0
    3.2362    0.7109   -1.6873 C   0  0  0  0  0  0
    4.1458    1.5497   -1.1801 N   0  0  0  0  0  0
    5.4207    1.3156   -1.6998 C   0  0  0  0  0  0
    5.4713    0.2876   -2.6102 C   0  0  0  0  0  0
    3.8978   -0.4310   -2.8464 S   0  0  0  0  0  0
    6.6686   -0.2116   -3.3499 C   0  0  0  0  0  0
    7.1032    0.7515   -4.4381 C   0  0  0  0  0  0
    8.1301    1.6869   -4.1906 C   0  0  0  0  0  0
    8.5263    2.5855   -5.2002 C   0  0  0  0  0  0
    7.8975    2.5529   -6.4601 C   0  0  0  0  0  0
    6.8711    1.6209   -6.7102 C   0  0  0  0  0  0
    6.4749    0.7217   -5.7008 C   0  0  0  0  0  0
    6.2636    1.5885   -7.9201 F   0  0  0  0  0  0
    8.2798    3.4183   -7.4291 F   0  0  0  0  0  0
   -3.1408    2.9008   -2.0326 H   0  0  0  0  0  0
   -7.8519    0.6196    2.3445 H   0  0  0  0  0  0
   -6.1257    0.2416    3.9730 H   0  0  0  0  0  0
   -3.8319    0.7527    3.4455 H   0  0  0  0  0  0
   -7.3008    1.5109    0.1745 H   0  0  0  0  0  0
   -0.8144    3.2238    0.4616 H   0  0  0  0  0  0
   -1.0292    3.0264   -1.3109 H   0  0  0  0  0  0
   -0.3914    0.7673    0.6820 H   0  0  0  0  0  0
   -0.6004    0.5737   -1.0916 H   0  0  0  0  0  0
    1.3131   -0.1022   -1.8325 H   0  0  0  0  0  0
    6.2525    1.8202   -1.4687 H   0  0  0  0  0  0
    7.5061   -0.3393   -2.6483 H   0  0  0  0  0  0
    6.4329   -1.1781   -3.8194 H   0  0  0  0  0  0
    8.6142    1.7199   -3.2254 H   0  0  0  0  0  0
    9.3121    3.3008   -5.0075 H   0  0  0  0  0  0
    5.6851    0.0112   -5.8963 H   0  0  0  0  0  0
  1  6  2  0  0  0
  1 32  1  0  0  0
  1  2  1  0  0  0
  2 33  1  0  0  0
  2  3  2  0  0  0
  3 34  1  0  0  0
  3  4  1  0  0  0
  4  5  2  0  0  0
  4 11  1  0  0  0
  5  7  1  0  0  0
  5  6  1  0  0  0
  6 35  1  0  0  0
  7  8  2  0  0  0
  7  9  1  0  0  0
  9 10  1  0  0  0
  9 31  1  0  0  0
 10 11  2  0  0  0
 10 12  1  0  0  0
 12 13  1  0  0  0
 12 36  1  0  0  0
 12 37  1  0  0  0
 13 14  1  0  0  0
 13 38  1  0  0  0
 13 39  1  0  0  0
 14 15  2  0  0  0
 14 16  1  0  0  0
 16 17  1  0  0  0
 16 40  1  0  0  0
 17 21  1  0  0  0
 17 18  2  0  0  0
 18 19  1  0  0  0
 19 20  2  0  0  0
 19 41  1  0  0  0
 20 21  1  0  0  0
 20 22  1  0  0  0
 22 23  1  0  0  0
 22 42  1  0  0  0
 22 43  1  0  0  0
 23 28  1  0  0  0
 23 24  2  0  0  0
 24 25  1  0  0  0
 24 44  1  0  0  0
 25 26  2  0  0  0
 25 45  1  0  0  0
 26 27  1  0  0  0
 26 30  1  0  0  0
 27 28  2  0  0  0
 27 29  1  0  0  0
 28 46  1  0  0  0
M  END
> <s_m_source_file>
SM18.smi

> <i_m_source_file_index>
1

> <i_lp_mmshare_version>
38013

> <i_f3d_flags>
0

> <s_lp_Force_Field>
OPLS_2005

> <r_lp_Energy>
13.8546902704395

> <b_lp_Chiralities_Consistent>
1

> <s_lp_Variant>
SM18-2

> <r_lp_tautomer_probability>
0.883054493714579

> <r_epik_Ionization_Penalty>
  0.5214

> <r_epik_Ionization_Penalty_Charging>
  0.0000

> <r_epik_Ionization_Penalty_Neutral>
  0.5214

> <r_epik_State_Penalty>
  0.6343

> <r_epik_Charging_Adjusted_Penalty>
0.634337119310019

> <i_epik_Tot_Q>
0

> <i_epik_Tot_abs_Q>
0

$$$$
SM18
                    3D
 Structure written by MMmdl.
 48 51  0  0  1  0            999 V2000
   -6.9016    0.8338    2.1186 C   0  0  0  0  0  0
   -5.8898    0.6118    3.0745 C   0  0  0  0  0  0
   -4.5484    0.9108    2.7660 C   0  0  0  0  0  0
   -4.2288    1.4228    1.4940 C   0  0  0  0  0  0
   -5.2362    1.6576    0.5309 C   0  0  0  0  0  0
   -6.5792    1.3553    0.8491 C   0  0  0  0  0  0
   -4.8352    2.2210   -0.8221 C   0  0  0  0  0  0
   -5.7127    2.4189   -1.6615 O   0  0  0  0  0  0
   -3.4808    2.4949   -1.0684 N   0  3  0  0  0  0
   -2.6194    2.2572   -0.1223 C   0  0  0  0  0  0
   -2.9236    1.7461    1.1317 N   0  0  0  0  0  0
   -1.1411    2.5363   -0.3325 C   0  0  0  0  0  0
   -0.2763    1.2595   -0.2950 C   0  0  0  0  0  0
    1.2133    1.5482   -0.5020 C   0  0  0  0  0  0
    1.7383    2.4956    0.0836 O   0  0  0  0  0  0
    1.8615    0.7098   -1.3325 N   0  0  0  0  0  0
    3.2362    0.7109   -1.6873 C   0  0  0  0  0  0
    4.1458    1.5497   -1.1801 N   0  3  0  0  0  0
    5.4207    1.3156   -1.6998 C   0  0  0  0  0  0
    5.4713    0.2876   -2.6102 C   0  0  0  0  0  0
    3.8978   -0.4310   -2.8464 S   0  0  0  0  0  0
    6.6686   -0.2116   -3.3499 C   0  0  0  0  0  0
    7.1032    0.7515   -4.4381 C   0  0  0  0  0  0
    8.1301    1.6869   -4.1906 C   0  0  0  0  0  0
    8.5263    2.5855   -5.2002 C   0  0  0  0  0  0
    7.8975    2.5529   -6.4601 C   0  0  0  0  0  0
    6.8711    1.6209   -6.7102 C   0  0  0  0  0  0
    6.4749    0.7217   -5.7008 C   0  0  0  0  0  0
    6.2636    1.5885   -7.9201 F   0  0  0  0  0  0
    8.2798    3.4183   -7.4291 F   0  0  0  0  0  0
   -3.1408    2.9008   -2.0326 H   0  0  0  0  0  0
   -7.8519    0.6196    2.3445 H   0  0  0  0  0  0
   -6.1257    0.2416    3.9730 H   0  0  0  0  0  0
   -3.8319    0.7527    3.4455 H   0  0  0  0  0  0
   -7.3008    1.5109    0.1745 H   0  0  0  0  0  0
   -0.8144    3.2238    0.4616 H   0  0  0  0  0  0
   -1.0292    3.0264   -1.3109 H   0  0  0  0  0  0
   -0.3914    0.7673    0.6820 H   0  0  0  0  0  0
   -0.6004    0.5737   -1.0916 H   0  0  0  0  0  0
    1.3131   -0.1022   -1.8325 H   0  0  0  0  0  0
    6.2525    1.8202   -1.4687 H   0  0  0  0  0  0
    7.5061   -0.3393   -2.6483 H   0  0  0  0  0  0
    6.4329   -1.1781   -3.8194 H   0  0  0  0  0  0
    8.6142    1.7199   -3.2254 H   0  0  0  0  0  0
    9.3121    3.3008   -5.0075 H   0  0  0  0  0  0
    5.6851    0.0112   -5.8963 H   0  0  0  0  0  0
    3.8438    2.3084   -0.4431 H   0  0  0  0  0  0
   -2.1014    1.5981    1.8473 H   0  0  0  0  0  0
  1  6  1  0  0  0
  1 32  1  0  0  0
  1  2  2  0  0  0
  2 33  1  0  0  0
  2  3  1  0  0  0
  3 34  1  0  0  0
  3  4  2  0  0  0
  4  5  1  0  0  0
  4 11  1  0  0  0
  5  7  1  0  0  0
  5  6  2  0  0  0
  6 35  1  0  0  0
  7  8  2  0  0  0
  7  9  1  0  0  0
  9 10  2  0  0  0
  9 31  1  0  0  0
 10 11  1  0  0  0
 10 12  1  0  0  0
 11 48  1  0  0  0
 12 13  1  0  0  0
 12 36  1  0  0  0
 12 37  1  0  0  0
 13 14  1  0  0  0
 13 38  1  0  0  0
 13 39  1  0  0  0
 14 15  2  0  0  0
 14 16  1  0  0  0
 16 17  1  0  0  0
 16 40  1  0  0  0
 17 21  1  0  0  0
 17 18  2  0  0  0
 18 19  1  0  0  0
 18 47  1  0  0  0
 19 20  2  0  0  0
 19 41  1  0  0  0
 20 21  1  0  0  0
 20 22  1  0  0  0
 22 23  1  0  0  0
 22 42  1  0  0  0
 22 43  1  0  0  0
 23 28  1  0  0  0
 23 24  2  0  0  0
 24 25  1  0  0  0
 24 44  1  0  0  0
 25 26  2  0  0  0
 25 45  1  0  0  0
 26 27  1  0  0  0
 26 30  1  0  0  0
 27 28  2  0  0  0
 27 29  1  0  0  0
 28 46  1  0  0  0
M  CHG  2   9   1  18   1
M  END
> <s_m_source_file>
SM18.smi

> <i_m_source_file_index>
1

> <i_lp_mmshare_version>
38013

> <i_f3d_flags>
0

> <s_lp_Force_Field>
OPLS_2005

> <r_lp_Energy>
13.8546902704395

> <b_lp_Chiralities_Consistent>
1

> <s_lp_Variant>
SM18-2

> <r_epik_Ionization_Penalty>
  2.3759

> <r_epik_Ionization_Penalty_Charging>
  2.3049

> <r_epik_Ionization_Penalty_Neutral>
  0.0710

> <r_epik_State_Penalty>
  1.2435

> <r_epik_Charging_Adjusted_Penalty>
3.54837093414005

> <i_epik_Tot_Q>
2

> <i_epik_Tot_abs_Q>
2

$$$$
SM18
                    3D
 Structure written by MMmdl.
 47 50  0  0  1  0            999 V2000
   -6.9016    0.8338    2.1186 C   0  0  0  0  0  0
   -5.8898    0.6118    3.0745 C   0  0  0  0  0  0
   -4.5484    0.9108    2.7660 C   0  0  0  0  0  0
   -4.2288    1.4228    1.4940 C   0  0  0  0  0  0
   -5.2362    1.6576    0.5309 C   0  0  0  0  0  0
   -6.5792    1.3553    0.8491 C   0  0  0  0  0  0
   -4.8352    2.2210   -0.8221 C   0  0  0  0  0  0
   -5.7127    2.4189   -1.6615 O   0  0  0  0  0  0
   -3.4808    2.4949   -1.0684 N   0  3  0  0  0  0
   -2.6194    2.2572   -0.1223 C   0  0  0  0  0  0
   -2.9236    1.7461    1.1317 N   0  0  0  0  0  0
   -1.1411    2.5363   -0.3325 C   0  0  0  0  0  0
   -0.2763    1.2595   -0.2950 C   0  0  0  0  0  0
    1.2133    1.5482   -0.5020 C   0  0  0  0  0  0
    1.7383    2.4956    0.0836 O   0  0  0  0  0  0
    1.8615    0.7098   -1.3325 N   0  0  0  0  0  0
    3.2362    0.7109   -1.6873 C   0  0  0  0  0  0
    4.1458    1.5497   -1.1801 N   0  0  0  0  0  0
    5.4207    1.3156   -1.6998 C   0  0  0  0  0  0
    5.4713    0.2876   -2.6102 C   0  0  0  0  0  0
    3.8978   -0.4310   -2.8464 S   0  0  0  0  0  0
    6.6686   -0.2116   -3.3499 C   0  0  0  0  0  0
    7.1032    0.7515   -4.4381 C   0  0  0  0  0  0
    8.1301    1.6869   -4.1906 C   0  0  0  0  0  0
    8.5263    2.5855   -5.2002 C   0  0  0  0  0  0
    7.8975    2.5529   -6.4601 C   0  0  0  0  0  0
    6.8711    1.6209   -6.7102 C   0  0  0  0  0  0
    6.4749    0.7217   -5.7008 C   0  0  0  0  0  0
    6.2636    1.5885   -7.9201 F   0  0  0  0  0  0
    8.2798    3.4183   -7.4291 F   0  0  0  0  0  0
   -3.1408    2.9008   -2.0326 H   0  0  0  0  0  0
   -7.8519    0.6196    2.3445 H   0  0  0  0  0  0
   -6.1257    0.2416    3.9730 H   0  0  0  0  0  0
   -3.8319    0.7527    3.4455 H   0  0  0  0  0  0
   -7.3008    1.5109    0.1745 H   0  0  0  0  0  0
   -0.8144    3.2238    0.4616 H   0  0  0  0  0  0
   -1.0292    3.0264   -1.3109 H   0  0  0  0  0  0
   -0.3914    0.7673    0.6820 H   0  0  0  0  0  0
   -0.6004    0.5737   -1.0916 H   0  0  0  0  0  0
    1.3131   -0.1022   -1.8325 H   0  0  0  0  0  0
    6.2525    1.8202   -1.4687 H   0  0  0  0  0  0
    7.5061   -0.3393   -2.6483 H   0  0  0  0  0  0
    6.4329   -1.1781   -3.8194 H   0  0  0  0  0  0
    8.6142    1.7199   -3.2254 H   0  0  0  0  0  0
    9.3121    3.3008   -5.0075 H   0  0  0  0  0  0
    5.6851    0.0112   -5.8963 H   0  0  0  0  0  0
   -2.1014    1.5981    1.8473 H   0  0  0  0  0  0
  1  6  1  0  0  0
  1 32  1  0  0  0
  1  2  2  0  0  0
  2 33  1  0  0  0
  2  3  1  0  0  0
  3 34  1  0  0  0
  3  4  2  0  0  0
  4  5  1  0  0  0
  4 11  1  0  0  0
  5  7  1  0  0  0
  5  6  2  0  0  0
  6 35  1  0  0  0
  7  8  2  0  0  0
  7  9  1  0  0  0
  9 10  2  0  0  0
  9 31  1  0  0  0
 10 11  1  0  0  0
 10 12  1  0  0  0
 11 47  1  0  0  0
 12 13  1  0  0  0
 12 36  1  0  0  0
 12 37  1  0  0  0
 13 14  1  0  0  0
 13 38  1  0  0  0
 13 39  1  0  0  0
 14 15  2  0  0  0
 14 16  1  0  0  0
 16 17  1  0  0  0
 16 40  1  0  0  0
 17 21  1  0  0  0
 17 18  2  0  0  0
 18 19  1  0  0  0
 19 20  2  0  0  0
 19 41  1  0  0  0
 20 21  1  0  0  0
 20 22  1  0  0  0
 22 23  1  0  0  0
 22 42  1  0  0  0
 22 43  1  0  0  0
 23 28  1  0  0  0
 23 24  2  0  0  0
 24 25  1  0  0  0
 24 44  1  0  0  0
 25 26  2  0  0  0
 25 45  1  0  0  0
 26 27  1  0  0  0
 26 30  1  0  0  0
 27 28  2  0  0  0
 27 29  1  0  0  0
 28 46  1  0  0  0
M  CHG  1   9   1
M  END
> <s_m_source_file>
SM18.smi

> <i_m_source_file_index>
1

> <i_lp_mmshare_version>
38013

> <i_f3d_flags>
0

> <s_lp_Force_Field>
OPLS_2005

> <r_lp_Energy>
13.8546902704395

> <b_lp_Chiralities_Consistent>
1

> <s_lp_Variant>
SM18-2

> <r_epik_Ionization_Penalty>
  2.3592

> <r_epik_Ionization_Penalty_Charging>
  1.8940

> <r_epik_Ionization_Penalty_Neutral>
  0.4653

> <r_epik_State_Penalty>
  1.2795

> <r_epik_Charging_Adjusted_Penalty>
3.17345996347219

> <i_epik_Tot_Q>
1

> <i_epik_Tot_abs_Q>
1

$$$$
SM18
                    3D
 Structure written by MMmdl.
 47 50  0  0  1  0            999 V2000
   -6.8981    0.8088    2.1092 C   0  0  0  0  0  0
   -5.8875    0.5954    3.0683 C   0  0  0  0  0  0
   -4.5472    0.9024    2.7629 C   0  0  0  0  0  0
   -4.2288    1.4228    1.4940 C   0  0  0  0  0  0
   -5.2339    1.6407    0.5245 C   0  0  0  0  0  0
   -6.5757    1.3300    0.8397 C   0  0  0  0  0  0
   -4.8329    2.2046   -0.8283 C   0  0  0  0  0  0
   -5.7094    2.3951   -1.6705 O   0  0  0  0  0  0
   -3.4797    2.4864   -1.0716 N   0  0  0  0  0  0
   -2.6192    2.2562   -0.1226 C   0  0  0  0  0  0
   -2.9235    1.7456    1.1315 N   0  0  0  0  0  0
   -1.1409    2.5348   -0.3330 C   0  0  0  0  0  0
   -0.2765    1.2579   -0.2952 C   0  0  0  0  0  0
    1.2132    1.5460   -0.5024 C   0  0  0  0  0  0
    1.7385    2.4935    0.0828 O   0  0  0  0  0  0
    1.8611    0.7072   -1.3327 N   0  0  0  0  0  0
    3.2358    0.7078   -1.6876 C   0  0  0  0  0  0
    4.1457    1.5465   -1.1807 N   0  3  0  0  0  0
    5.4204    1.3119   -1.7004 C   0  0  0  0  0  0
    5.4707    0.2836   -2.6105 C   0  0  0  0  0  0
    3.8970   -0.4346   -2.8464 S   0  0  0  0  0  0
    6.6678   -0.2161   -3.3501 C   0  0  0  0  0  0
    7.1027    0.7465   -4.4386 C   0  0  0  0  0  0
    8.1298    1.6817   -4.1914 C   0  0  0  0  0  0
    8.5262    2.5799   -5.2014 C   0  0  0  0  0  0
    7.8974    2.5470   -6.4612 C   0  0  0  0  0  0
    6.8706    1.6153   -6.7110 C   0  0  0  0  0  0
    6.4743    0.7165   -5.7013 C   0  0  0  0  0  0
    6.2631    1.5827   -7.9209 F   0  0  0  0  0  0
    8.2798    3.4121   -7.4305 F   0  0  0  0  0  0
   -2.1013    1.5976    1.8471 H   0  0  0  0  0  0
   -7.9244    0.5719    2.3484 H   0  0  0  0  0  0
   -6.1412    0.1958    4.0392 H   0  0  0  0  0  0
   -3.7734    0.7387    3.4985 H   0  0  0  0  0  0
   -7.3639    1.4869    0.1178 H   0  0  0  0  0  0
   -0.9933    3.0097   -1.3142 H   0  0  0  0  0  0
   -0.7784    3.2076    0.4581 H   0  0  0  0  0  0
   -0.3917    0.7660    0.6819 H   0  0  0  0  0  0
   -0.6008    0.5719   -1.0916 H   0  0  0  0  0  0
    1.3125   -0.1048   -1.8324 H   0  0  0  0  0  0
    6.2416    1.9295   -1.3680 H   0  0  0  0  0  0
    7.5053   -0.3439   -2.6486 H   0  0  0  0  0  0
    6.4318   -1.1827   -3.8193 H   0  0  0  0  0  0
    8.6140    1.7148   -3.2263 H   0  0  0  0  0  0
    9.3122    3.2950   -5.0089 H   0  0  0  0  0  0
    5.6842    0.0062   -5.8966 H   0  0  0  0  0  0
    3.8440    2.3055   -0.4439 H   0  0  0  0  0  0
  1  6  2  0  0  0
  1 32  1  0  0  0
  1  2  1  0  0  0
  2 33  1  0  0  0
  2  3  2  0  0  0
  3 34  1  0  0  0
  3  4  1  0  0  0
  4  5  2  0  0  0
  4 11  1  0  0  0
  5  7  1  0  0  0
  5  6  1  0  0  0
  6 35  1  0  0  0
  7  8  2  0  0  0
  7  9  1  0  0  0
  9 10  2  0  0  0
 10 11  1  0  0  0
 10 12  1  0  0  0
 11 31  1  0  0  0
 12 13  1  0  0  0
 12 36  1  0  0  0
 12 37  1  0  0  0
 13 14  1  0  0  0
 13 38  1  0  0  0
 13 39  1  0  0  0
 14 15  2  0  0  0
 14 16  1  0  0  0
 16 17  1  0  0  0
 16 40  1  0  0  0
 17 21  1  0  0  0
 17 18  2  0  0  0
 18 19  1  0  0  0
 18 47  1  0  0  0
 19 20  2  0  0  0
 19 41  1  0  0  0
 20 21  1  0  0  0
 20 22  1  0  0  0
 22 23  1  0  0  0
 22 42  1  0  0  0
 22 43  1  0  0  0
 23 28  1  0  0  0
 23 24  2  0  0  0
 24 25  1  0  0  0
 24 44  1  0  0  0
 25 26  2  0  0  0
 25 45  1  0  0  0
 26 27  1  0  0  0
 26 30  1  0  0  0
 27 28  2  0  0  0
 27 29  1  0  0  0
 28 46  1  0  0  0
M  CHG  1  18   1
M  END
> <s_m_source_file>
SM18.smi

> <i_m_source_file_index>
1

> <i_lp_mmshare_version>
38013

> <i_f3d_flags>
0

> <s_lp_Force_Field>
OPLS_2005

> <r_lp_Energy>
13.8546902704395

> <b_lp_Chiralities_Consistent>
1

> <s_lp_Variant>
SM18-2

> <r_lp_tautomer_probability>
0.116051

> <r_epik_Ionization_Penalty>
  0.7744

> <r_epik_Ionization_Penalty_Charging>
  0.3619

> <r_epik_Ionization_Penalty_Neutral>
  0.4125

> <r_epik_State_Penalty>
  2.6516

> <r_epik_Charging_Adjusted_Penalty>
3.01352878494226

> <i_epik_Tot_Q>
1

> <i_epik_Tot_abs_Q>
1

$$$$
SM18
                    3D
 Structure written by MMmdl.
 46 49  0  0  1  0            999 V2000
   -6.8981    0.8088    2.1092 C   0  0  0  0  0  0
   -5.8875    0.5954    3.0683 C   0  0  0  0  0  0
   -4.5472    0.9024    2.7629 C   0  0  0  0  0  0
   -4.2288    1.4228    1.4940 C   0  0  0  0  0  0
   -5.2339    1.6407    0.5245 C   0  0  0  0  0  0
   -6.5757    1.3300    0.8397 C   0  0  0  0  0  0
   -4.8329    2.2046   -0.8283 C   0  0  0  0  0  0
   -5.7094    2.3951   -1.6705 O   0  0  0  0  0  0
   -3.4797    2.4864   -1.0716 N   0  0  0  0  0  0
   -2.6192    2.2562   -0.1226 C   0  0  0  0  0  0
   -2.9235    1.7456    1.1315 N   0  0  0  0  0  0
   -1.1409    2.5348   -0.3330 C   0  0  0  0  0  0
   -0.2765    1.2579   -0.2952 C   0  0  0  0  0  0
    1.2132    1.5460   -0.5024 C   0  0  0  0  0  0
    1.7385    2.4935    0.0828 O   0  0  0  0  0  0
    1.8611    0.7072   -1.3327 N   0  0  0  0  0  0
    3.2358    0.7078   -1.6876 C   0  0  0  0  0  0
    4.1457    1.5465   -1.1807 N   0  0  0  0  0  0
    5.4204    1.3119   -1.7004 C   0  0  0  0  0  0
    5.4707    0.2836   -2.6105 C   0  0  0  0  0  0
    3.8970   -0.4346   -2.8464 S   0  0  0  0  0  0
    6.6678   -0.2161   -3.3501 C   0  0  0  0  0  0
    7.1027    0.7465   -4.4386 C   0  0  0  0  0  0
    8.1298    1.6817   -4.1914 C   0  0  0  0  0  0
    8.5262    2.5799   -5.2014 C   0  0  0  0  0  0
    7.8974    2.5470   -6.4612 C   0  0  0  0  0  0
    6.8706    1.6153   -6.7110 C   0  0  0  0  0  0
    6.4743    0.7165   -5.7013 C   0  0  0  0  0  0
    6.2631    1.5827   -7.9209 F   0  0  0  0  0  0
    8.2798    3.4121   -7.4305 F   0  0  0  0  0  0
   -2.1013    1.5976    1.8471 H   0  0  0  0  0  0
   -7.9244    0.5719    2.3484 H   0  0  0  0  0  0
   -6.1412    0.1958    4.0392 H   0  0  0  0  0  0
   -3.7734    0.7387    3.4985 H   0  0  0  0  0  0
   -7.3639    1.4869    0.1178 H   0  0  0  0  0  0
   -0.9933    3.0097   -1.3142 H   0  0  0  0  0  0
   -0.7784    3.2076    0.4581 H   0  0  0  0  0  0
   -0.3917    0.7660    0.6819 H   0  0  0  0  0  0
   -0.6008    0.5719   -1.0916 H   0  0  0  0  0  0
    1.3125   -0.1048   -1.8324 H   0  0  0  0  0  0
    6.2416    1.9295   -1.3680 H   0  0  0  0  0  0
    7.5053   -0.3439   -2.6486 H   0  0  0  0  0  0
    6.4318   -1.1827   -3.8193 H   0  0  0  0  0  0
    8.6140    1.7148   -3.2263 H   0  0  0  0  0  0
    9.3122    3.2950   -5.0089 H   0  0  0  0  0  0
    5.6842    0.0062   -5.8966 H   0  0  0  0  0  0
  1  6  2  0  0  0
  1 32  1  0  0  0
  1  2  1  0  0  0
  2 33  1  0  0  0
  2  3  2  0  0  0
  3 34  1  0  0  0
  3  4  1  0  0  0
  4  5  2  0  0  0
  4 11  1  0  0  0
  5  7  1  0  0  0
  5  6  1  0  0  0
  6 35  1  0  0  0
  7  8  2  0  0  0
  7  9  1  0  0  0
  9 10  2  0  0  0
 10 11  1  0  0  0
 10 12  1  0  0  0
 11 31  1  0  0  0
 12 13  1  0  0  0
 12 36  1  0  0  0
 12 37  1  0  0  0
 13 14  1  0  0  0
 13 38  1  0  0  0
 13 39  1  0  0  0
 14 15  2  0  0  0
 14 16  1  0  0  0
 16 17  1  0  0  0
 16 40  1  0  0  0
 17 21  1  0  0  0
 17 18  2  0  0  0
 18 19  1  0  0  0
 19 20  2  0  0  0
 19 41  1  0  0  0
 20 21  1  0  0  0
 20 22  1  0  0  0
 22 23  1  0  0  0
 22 42  1  0  0  0
 22 43  1  0  0  0
 23 28  1  0  0  0
 23 24  2  0  0  0
 24 25  1  0  0  0
 24 44  1  0  0  0
 25 26  2  0  0  0
 25 45  1  0  0  0
 26 27  1  0  0  0
 26 30  1  0  0  0
 27 28  2  0  0  0
 27 29  1  0  0  0
 28 46  1  0  0  0
M  END
> <s_m_source_file>
SM18.smi

> <i_m_source_file_index>
1

> <i_lp_mmshare_version>
38013

> <i_f3d_flags>
0

> <s_lp_Force_Field>
OPLS_2005

> <r_lp_Energy>
13.8546902704395

> <b_lp_Chiralities_Consistent>
1

> <s_lp_Variant>
SM18-2

> <r_lp_tautomer_probability>
0.115935005679211

> <r_epik_Ionization_Penalty>
  0.8220

> <r_epik_Ionization_Penalty_Charging>
  0.0000

> <r_epik_Ionization_Penalty_Neutral>
  0.8220

> <r_epik_State_Penalty>
  2.7104

> <r_epik_Charging_Adjusted_Penalty>
2.7104129068724

> <i_epik_Tot_Q>
0

> <i_epik_Tot_abs_Q>
0

$$$$
SM18
                    3D
 Structure written by MMmdl.
 47 50  0  0  1  0            999 V2000
   -6.9016    0.8338    2.1186 C   0  0  0  0  0  0
   -5.8898    0.6118    3.0745 C   0  0  0  0  0  0
   -4.5484    0.9108    2.7660 C   0  0  0  0  0  0
   -4.2288    1.4228    1.4940 C   0  0  0  0  0  0
   -5.2362    1.6576    0.5309 C   0  0  0  0  0  0
   -6.5792    1.3553    0.8491 C   0  0  0  0  0  0
   -4.8352    2.2210   -0.8221 C   0  0  0  0  0  0
   -5.7127    2.4189   -1.6615 O   0  0  0  0  0  0
   -3.4808    2.4949   -1.0684 N   0  0  0  0  0  0
   -2.6194    2.2572   -0.1223 C   0  0  0  0  0  0
   -2.9236    1.7461    1.1317 N   0  0  0  0  0  0
   -1.1411    2.5363   -0.3325 C   0  0  0  0  0  0
   -0.2763    1.2595   -0.2950 C   0  0  0  0  0  0
    1.2133    1.5482   -0.5020 C   0  0  0  0  0  0
    1.7383    2.4956    0.0836 O   0  3  0  0  0  0
    1.8615    0.7098   -1.3325 N   0  0  0  0  0  0
    3.2362    0.7109   -1.6873 C   0  0  0  0  0  0
    4.1458    1.5497   -1.1801 N   0  0  0  0  0  0
    5.4207    1.3156   -1.6998 C   0  0  0  0  0  0
    5.4713    0.2876   -2.6102 C   0  0  0  0  0  0
    3.8978   -0.4310   -2.8464 S   0  0  0  0  0  0
    6.6686   -0.2116   -3.3499 C   0  0  0  0  0  0
    7.1032    0.7515   -4.4381 C   0  0  0  0  0  0
    8.1301    1.6869   -4.1906 C   0  0  0  0  0  0
    8.5263    2.5855   -5.2002 C   0  0  0  0  0  0
    7.8975    2.5529   -6.4601 C   0  0  0  0  0  0
    6.8711    1.6209   -6.7102 C   0  0  0  0  0  0
    6.4749    0.7217   -5.7008 C   0  0  0  0  0  0
    6.2636    1.5885   -7.9201 F   0  0  0  0  0  0
    8.2798    3.4183   -7.4291 F   0  0  0  0  0  0
   -3.1408    2.9008   -2.0326 H   0  0  0  0  0  0
   -7.8519    0.6196    2.3445 H   0  0  0  0  0  0
   -6.1257    0.2416    3.9730 H   0  0  0  0  0  0
   -3.8319    0.7527    3.4455 H   0  0  0  0  0  0
   -7.3008    1.5109    0.1745 H   0  0  0  0  0  0
   -0.8144    3.2238    0.4616 H   0  0  0  0  0  0
   -1.0292    3.0264   -1.3109 H   0  0  0  0  0  0
   -0.3914    0.7673    0.6820 H   0  0  0  0  0  0
   -0.6004    0.5737   -1.0916 H   0  0  0  0  0  0
    1.3131   -0.1022   -1.8325 H   0  0  0  0  0  0
    6.2525    1.8202   -1.4687 H   0  0  0  0  0  0
    7.5061   -0.3393   -2.6483 H   0  0  0  0  0  0
    6.4329   -1.1781   -3.8194 H   0  0  0  0  0  0
    8.6142    1.7199   -3.2254 H   0  0  0  0  0  0
    9.3121    3.3008   -5.0075 H   0  0  0  0  0  0
    5.6851    0.0112   -5.8963 H   0  0  0  0  0  0
    2.8094    2.7034   -0.0564 H   0  0  0  0  0  0
  1  6  2  0  0  0
  1 32  1  0  0  0
  1  2  1  0  0  0
  2 33  1  0  0  0
  2  3  2  0  0  0
  3 34  1  0  0  0
  3  4  1  0  0  0
  4  5  2  0  0  0
  4 11  1  0  0  0
  5  7  1  0  0  0
  5  6  1  0  0  0
  6 35  1  0  0  0
  7  8  2  0  0  0
  7  9  1  0  0  0
  9 10  1  0  0  0
  9 31  1  0  0  0
 10 11  2  0  0  0
 10 12  1  0  0  0
 12 13  1  0  0  0
 12 36  1  0  0  0
 12 37  1  0  0  0
 13 14  1  0  0  0
 13 38  1  0  0  0
 13 39  1  0  0  0
 14 15  2  0  0  0
 14 16  1  0  0  0
 15 47  1  0  0  0
 16 17  1  0  0  0
 16 40  1  0  0  0
 17 21  1  0  0  0
 17 18  2  0  0  0
 18 19  1  0  0  0
 19 20  2  0  0  0
 19 41  1  0  0  0
 20 21  1  0  0  0
 20 22  1  0  0  0
 22 23  1  0  0  0
 22 42  1  0  0  0
 22 43  1  0  0  0
 23 28  1  0  0  0
 23 24  2  0  0  0
 24 25  1  0  0  0
 24 44  1  0  0  0
 25 26  2  0  0  0
 25 45  1  0  0  0
 26 27  1  0  0  0
 26 30  1  0  0  0
 27 28  2  0  0  0
 27 29  1  0  0  0
 28 46  1  0  0  0
M  CHG  1  15   1
M  END
> <s_m_source_file>
SM18.smi

> <i_m_source_file_index>
1

> <i_lp_mmshare_version>
38013

> <i_f3d_flags>
0

> <s_lp_Force_Field>
OPLS_2005

> <r_lp_Energy>
13.8546902704395

> <b_lp_Chiralities_Consistent>
1

> <s_lp_Variant>
SM18-2

> <r_epik_Ionization_Penalty>
  6.4584

> <r_epik_Ionization_Penalty_Charging>
  3.5722

> <r_epik_Ionization_Penalty_Neutral>
  2.8862

> <r_epik_State_Penalty>
  4.4446

> <r_epik_Charging_Adjusted_Penalty>
8.01678242823298

> <i_epik_Tot_Q>
1

> <i_epik_Tot_abs_Q>
1

$$$$
