SM18
                    3D
 Structure written by MMmdl.
 47 50  0  0  1  0            999 V2000
   -7.4314    0.4503   -0.2605 C   0  0  0  0  0  0
   -7.0865    1.0734   -1.4748 C   0  0  0  0  0  0
   -5.7613    1.4918   -1.7038 C   0  0  0  0  0  0
   -4.7692    1.2912   -0.7218 C   0  0  0  0  0  0
   -5.1225    0.6629    0.5024 C   0  0  0  0  0  0
   -6.4515    0.2444    0.7293 C   0  0  0  0  0  0
   -4.0475    0.4613    1.5353 C   0  0  0  0  0  0
   -4.2758   -0.0750    2.6184 O   0  0  0  0  0  0
   -2.8270    0.9098    1.1838 N   0  0  0  0  0  0
   -2.5683    1.5169   -0.0517 C   0  0  0  0  0  0
   -3.4532    1.7176   -0.9812 N   0  0  0  0  0  0
   -1.1111    1.9148   -0.1971 C   0  0  0  0  0  0
   -0.1759    0.7011   -0.3746 C   0  0  0  0  0  0
    1.2967    1.1001   -0.5073 C   0  0  0  0  0  0
    1.7478    2.0127    0.1853 O   0  0  0  0  0  0
    2.0151    0.3926   -1.3994 N   0  0  0  0  0  0
    3.3947    0.5133   -1.7118 C   0  0  0  0  0  0
    4.2366    1.3529   -1.0997 N   0  3  0  0  0  0
    5.5364    1.2482   -1.6000 C   0  0  0  0  0  0
    5.6744    0.3173   -2.6013 C   0  0  0  0  0  0
    4.1553   -0.4679   -2.9543 S   0  0  0  0  0  0
    6.9188   -0.0377   -3.3462 C   0  0  0  0  0  0
    7.2326    0.9688   -4.4366 C   0  0  0  0  0  0
    8.1353    2.0247   -4.1901 C   0  0  0  0  0  0
    8.4211    2.9615   -5.2022 C   0  0  0  0  0  0
    7.8050    2.8470   -6.4636 C   0  0  0  0  0  0
    6.9023    1.7946   -6.7127 C   0  0  0  0  0  0
    6.6167    0.8571   -5.7010 C   0  0  0  0  0  0
    6.3078    1.6828   -7.9243 F   0  0  0  0  0  0
    8.0812    3.7491   -7.4353 F   0  0  0  0  0  0
   -1.9815    0.8060    1.8797 H   0  0  0  0  0  0
   -8.4485    0.1306   -0.0879 H   0  0  0  0  0  0
   -7.8399    1.2304   -2.2325 H   0  0  0  0  0  0
   -5.5080    1.9689   -2.6394 H   0  0  0  0  0  0
   -6.7276   -0.2350    1.6572 H   0  0  0  0  0  0
   -0.9939    2.5615   -1.0792 H   0  0  0  0  0  0
   -0.7881    2.4595    0.7023 H   0  0  0  0  0  0
   -0.2666    0.0376    0.4981 H   0  0  0  0  0  0
   -0.4579    0.1508   -1.2844 H   0  0  0  0  0  0
    1.5305   -0.3949   -1.9952 H   0  0  0  0  0  0
    6.3086    1.8786   -1.1845 H   0  0  0  0  0  0
    7.7686   -0.0652   -2.6483 H   0  0  0  0  0  0
    6.7967   -1.0256   -3.8143 H   0  0  0  0  0  0
    8.6092    2.1204   -3.2243 H   0  0  0  0  0  0
    9.1128    3.7685   -5.0105 H   0  0  0  0  0  0
    5.9220    0.0533   -5.8966 H   0  0  0  0  0  0
    3.8691    2.0171   -0.3035 H   0  0  0  0  0  0
  1  6  1  0  0  0
  1  2  2  0  0  0
  1 32  1  0  0  0
  2  3  1  0  0  0
  2 33  1  0  0  0
  3  4  2  0  0  0
  3 34  1  0  0  0
  4 11  1  0  0  0
  4  5  1  0  0  0
  5  6  2  0  0  0
  5  7  1  0  0  0
  6 35  1  0  0  0
  7  8  2  0  0  0
  7  9  1  0  0  0
  9 31  1  0  0  0
  9 10  1  0  0  0
 10 11  2  0  0  0
 10 12  1  0  0  0
 12 13  1  0  0  0
 12 36  1  0  0  0
 12 37  1  0  0  0
 13 14  1  0  0  0
 13 38  1  0  0  0
 13 39  1  0  0  0
 14 15  2  0  0  0
 14 16  1  0  0  0
 16 17  1  0  0  0
 16 40  1  0  0  0
 17 21  1  0  0  0
 17 18  2  0  0  0
 18 19  1  0  0  0
 18 47  1  0  0  0
 19 20  2  0  0  0
 19 41  1  0  0  0
 20 21  1  0  0  0
 20 22  1  0  0  0
 22 23  1  0  0  0
 22 42  1  0  0  0
 22 43  1  0  0  0
 23 28  1  0  0  0
 23 24  2  0  0  0
 24 25  1  0  0  0
 24 44  1  0  0  0
 25 26  2  0  0  0
 25 45  1  0  0  0
 26 27  1  0  0  0
 26 30  1  0  0  0
 27 28  2  0  0  0
 27 29  1  0  0  0
 28 46  1  0  0  0
M  CHG  1  18   1
M  END
> <s_m_source_file>
SM18.smi

> <i_m_source_file_index>
1

> <i_lp_mmshare_version>
38013

> <i_f3d_flags>
0

> <s_lp_Force_Field>
OPLS_2005

> <r_lp_Energy>
17.4490160392642

> <b_lp_Chiralities_Consistent>
1

> <s_lp_Variant>
SM18-1

> <r_lp_tautomer_probability>
0.883938

> <r_epik_Ionization_Penalty>
  0.6418

> <r_epik_Ionization_Penalty_Charging>
  0.5023

> <r_epik_Ionization_Penalty_Neutral>
  0.1395

> <r_epik_State_Penalty>
  0.5302

> <r_epik_Charging_Adjusted_Penalty>
1.03247944836653

> <i_epik_Tot_Q>
1

> <i_epik_Tot_abs_Q>
1

$$$$
SM18
                    3D
 Structure written by MMmdl.
 46 49  0  0  1  0            999 V2000
   -7.4314    0.4503   -0.2605 C   0  0  0  0  0  0
   -7.0865    1.0734   -1.4748 C   0  0  0  0  0  0
   -5.7613    1.4918   -1.7038 C   0  0  0  0  0  0
   -4.7692    1.2912   -0.7218 C   0  0  0  0  0  0
   -5.1225    0.6629    0.5024 C   0  0  0  0  0  0
   -6.4515    0.2444    0.7293 C   0  0  0  0  0  0
   -4.0475    0.4613    1.5353 C   0  0  0  0  0  0
   -4.2758   -0.0750    2.6184 O   0  0  0  0  0  0
   -2.8270    0.9098    1.1838 N   0  0  0  0  0  0
   -2.5683    1.5169   -0.0517 C   0  0  0  0  0  0
   -3.4532    1.7176   -0.9812 N   0  0  0  0  0  0
   -1.1111    1.9148   -0.1971 C   0  0  0  0  0  0
   -0.1759    0.7011   -0.3746 C   0  0  0  0  0  0
    1.2967    1.1001   -0.5073 C   0  0  0  0  0  0
    1.7478    2.0127    0.1853 O   0  0  0  0  0  0
    2.0151    0.3926   -1.3994 N   0  0  0  0  0  0
    3.3947    0.5133   -1.7118 C   0  0  0  0  0  0
    4.2366    1.3529   -1.0997 N   0  0  0  0  0  0
    5.5364    1.2482   -1.6000 C   0  0  0  0  0  0
    5.6744    0.3173   -2.6013 C   0  0  0  0  0  0
    4.1553   -0.4679   -2.9543 S   0  0  0  0  0  0
    6.9188   -0.0377   -3.3462 C   0  0  0  0  0  0
    7.2326    0.9688   -4.4366 C   0  0  0  0  0  0
    8.1353    2.0247   -4.1901 C   0  0  0  0  0  0
    8.4211    2.9615   -5.2022 C   0  0  0  0  0  0
    7.8050    2.8470   -6.4636 C   0  0  0  0  0  0
    6.9023    1.7946   -6.7127 C   0  0  0  0  0  0
    6.6167    0.8571   -5.7010 C   0  0  0  0  0  0
    6.3078    1.6828   -7.9243 F   0  0  0  0  0  0
    8.0812    3.7491   -7.4353 F   0  0  0  0  0  0
   -1.9815    0.8060    1.8797 H   0  0  0  0  0  0
   -8.4485    0.1306   -0.0879 H   0  0  0  0  0  0
   -7.8399    1.2304   -2.2325 H   0  0  0  0  0  0
   -5.5080    1.9689   -2.6394 H   0  0  0  0  0  0
   -6.7276   -0.2350    1.6572 H   0  0  0  0  0  0
   -0.9939    2.5615   -1.0792 H   0  0  0  0  0  0
   -0.7881    2.4595    0.7023 H   0  0  0  0  0  0
   -0.2666    0.0376    0.4981 H   0  0  0  0  0  0
   -0.4579    0.1508   -1.2844 H   0  0  0  0  0  0
    1.5305   -0.3949   -1.9952 H   0  0  0  0  0  0
    6.3086    1.8786   -1.1845 H   0  0  0  0  0  0
    7.7686   -0.0652   -2.6483 H   0  0  0  0  0  0
    6.7967   -1.0256   -3.8143 H   0  0  0  0  0  0
    8.6092    2.1204   -3.2243 H   0  0  0  0  0  0
    9.1128    3.7685   -5.0105 H   0  0  0  0  0  0
    5.9220    0.0533   -5.8966 H   0  0  0  0  0  0
  1  6  1  0  0  0
  1  2  2  0  0  0
  1 32  1  0  0  0
  2  3  1  0  0  0
  2 33  1  0  0  0
  3  4  2  0  0  0
  3 34  1  0  0  0
  4 11  1  0  0  0
  4  5  1  0  0  0
  5  6  2  0  0  0
  5  7  1  0  0  0
  6 35  1  0  0  0
  7  8  2  0  0  0
  7  9  1  0  0  0
  9 31  1  0  0  0
  9 10  1  0  0  0
 10 11  2  0  0  0
 10 12  1  0  0  0
 12 13  1  0  0  0
 12 36  1  0  0  0
 12 37  1  0  0  0
 13 14  1  0  0  0
 13 38  1  0  0  0
 13 39  1  0  0  0
 14 15  2  0  0  0
 14 16  1  0  0  0
 16 17  1  0  0  0
 16 40  1  0  0  0
 17 21  1  0  0  0
 17 18  2  0  0  0
 18 19  1  0  0  0
 19 20  2  0  0  0
 19 41  1  0  0  0
 20 21  1  0  0  0
 20 22  1  0  0  0
 22 23  1  0  0  0
 22 42  1  0  0  0
 22 43  1  0  0  0
 23 28  1  0  0  0
 23 24  2  0  0  0
 24 25  1  0  0  0
 24 44  1  0  0  0
 25 26  2  0  0  0
 25 45  1  0  0  0
 26 27  1  0  0  0
 26 30  1  0  0  0
 27 28  2  0  0  0
 27 29  1  0  0  0
 28 46  1  0  0  0
M  END
> <s_m_source_file>
SM18.smi

> <i_m_source_file_index>
1

> <i_lp_mmshare_version>
38013

> <i_f3d_flags>
0

> <s_lp_Force_Field>
OPLS_2005

> <r_lp_Energy>
17.4490160392642

> <b_lp_Chiralities_Consistent>
1

> <s_lp_Variant>
SM18-1

> <r_lp_tautomer_probability>
0.883054493714579

> <r_epik_Ionization_Penalty>
  0.3683

> <r_epik_Ionization_Penalty_Charging>
  0.0000

> <r_epik_Ionization_Penalty_Neutral>
  0.3683

> <r_epik_State_Penalty>
  0.5618

> <r_epik_Charging_Adjusted_Penalty>
0.561785570297078

> <i_epik_Tot_Q>
0

> <i_epik_Tot_abs_Q>
0

$$$$
SM18
                    3D
 Structure written by MMmdl.
 47 50  0  0  1  0            999 V2000
   -7.4314    0.4503   -0.2605 C   0  0  0  0  0  0
   -7.0865    1.0734   -1.4748 C   0  0  0  0  0  0
   -5.7613    1.4918   -1.7038 C   0  0  0  0  0  0
   -4.7692    1.2912   -0.7218 C   0  0  0  0  0  0
   -5.1225    0.6629    0.5024 C   0  0  0  0  0  0
   -6.4515    0.2444    0.7293 C   0  0  0  0  0  0
   -4.0475    0.4613    1.5353 C   0  0  0  0  0  0
   -4.2758   -0.0750    2.6184 O   0  0  0  0  0  0
   -2.8270    0.9098    1.1838 N   0  3  0  0  0  0
   -2.5683    1.5169   -0.0517 C   0  0  0  0  0  0
   -3.4532    1.7176   -0.9812 N   0  0  0  0  0  0
   -1.1111    1.9148   -0.1971 C   0  0  0  0  0  0
   -0.1759    0.7011   -0.3746 C   0  0  0  0  0  0
    1.2967    1.1001   -0.5073 C   0  0  0  0  0  0
    1.7478    2.0127    0.1853 O   0  0  0  0  0  0
    2.0151    0.3926   -1.3994 N   0  0  0  0  0  0
    3.3947    0.5133   -1.7118 C   0  0  0  0  0  0
    4.2366    1.3529   -1.0997 N   0  0  0  0  0  0
    5.5364    1.2482   -1.6000 C   0  0  0  0  0  0
    5.6744    0.3173   -2.6013 C   0  0  0  0  0  0
    4.1553   -0.4679   -2.9543 S   0  0  0  0  0  0
    6.9188   -0.0377   -3.3462 C   0  0  0  0  0  0
    7.2326    0.9688   -4.4366 C   0  0  0  0  0  0
    8.1353    2.0247   -4.1901 C   0  0  0  0  0  0
    8.4211    2.9615   -5.2022 C   0  0  0  0  0  0
    7.8050    2.8470   -6.4636 C   0  0  0  0  0  0
    6.9023    1.7946   -6.7127 C   0  0  0  0  0  0
    6.6167    0.8571   -5.7010 C   0  0  0  0  0  0
    6.3078    1.6828   -7.9243 F   0  0  0  0  0  0
    8.0812    3.7491   -7.4353 F   0  0  0  0  0  0
   -1.9815    0.8060    1.8797 H   0  0  0  0  0  0
   -8.4485    0.1306   -0.0879 H   0  0  0  0  0  0
   -7.8399    1.2304   -2.2325 H   0  0  0  0  0  0
   -5.5080    1.9689   -2.6394 H   0  0  0  0  0  0
   -6.7276   -0.2350    1.6572 H   0  0  0  0  0  0
   -0.9939    2.5615   -1.0792 H   0  0  0  0  0  0
   -0.7881    2.4595    0.7023 H   0  0  0  0  0  0
   -0.2666    0.0376    0.4981 H   0  0  0  0  0  0
   -0.4579    0.1508   -1.2844 H   0  0  0  0  0  0
    1.5305   -0.3949   -1.9952 H   0  0  0  0  0  0
    6.3086    1.8786   -1.1845 H   0  0  0  0  0  0
    7.7686   -0.0652   -2.6483 H   0  0  0  0  0  0
    6.7967   -1.0256   -3.8143 H   0  0  0  0  0  0
    8.6092    2.1204   -3.2243 H   0  0  0  0  0  0
    9.1128    3.7685   -5.0105 H   0  0  0  0  0  0
    5.9220    0.0533   -5.8966 H   0  0  0  0  0  0
   -3.2099    2.1987   -1.9401 H   0  0  0  0  0  0
  1  6  1  0  0  0
  1  2  2  0  0  0
  1 32  1  0  0  0
  2  3  1  0  0  0
  2 33  1  0  0  0
  3  4  2  0  0  0
  3 34  1  0  0  0
  4 11  1  0  0  0
  4  5  1  0  0  0
  5  6  2  0  0  0
  5  7  1  0  0  0
  6 35  1  0  0  0
  7  8  2  0  0  0
  7  9  1  0  0  0
  9 31  1  0  0  0
  9 10  2  0  0  0
 10 11  1  0  0  0
 10 12  1  0  0  0
 11 47  1  0  0  0
 12 13  1  0  0  0
 12 36  1  0  0  0
 12 37  1  0  0  0
 13 14  1  0  0  0
 13 38  1  0  0  0
 13 39  1  0  0  0
 14 15  2  0  0  0
 14 16  1  0  0  0
 16 17  1  0  0  0
 16 40  1  0  0  0
 17 21  1  0  0  0
 17 18  2  0  0  0
 18 19  1  0  0  0
 19 20  2  0  0  0
 19 41  1  0  0  0
 20 21  1  0  0  0
 20 22  1  0  0  0
 22 23  1  0  0  0
 22 42  1  0  0  0
 22 43  1  0  0  0
 23 28  1  0  0  0
 23 24  2  0  0  0
 24 25  1  0  0  0
 24 44  1  0  0  0
 25 26  2  0  0  0
 25 45  1  0  0  0
 26 27  1  0  0  0
 26 30  1  0  0  0
 27 28  2  0  0  0
 27 29  1  0  0  0
 28 46  1  0  0  0
M  CHG  1   9   1
M  END
> <s_m_source_file>
SM18.smi

> <i_m_source_file_index>
1

> <i_lp_mmshare_version>
38013

> <i_f3d_flags>
0

> <s_lp_Force_Field>
OPLS_2005

> <r_lp_Energy>
17.4490160392642

> <b_lp_Chiralities_Consistent>
1

> <s_lp_Variant>
SM18-1

> <r_epik_Ionization_Penalty>
  2.6436

> <r_epik_Ionization_Penalty_Charging>
  2.3113

> <r_epik_Ionization_Penalty_Neutral>
  0.3323

> <r_epik_State_Penalty>
  1.3743

> <r_epik_Charging_Adjusted_Penalty>
3.68567338980793

> <i_epik_Tot_Q>
1

> <i_epik_Tot_abs_Q>
1

$$$$
SM18
                    3D
 Structure written by MMmdl.
 48 51  0  0  1  0            999 V2000
   -7.4314    0.4503   -0.2605 C   0  0  0  0  0  0
   -7.0865    1.0734   -1.4748 C   0  0  0  0  0  0
   -5.7613    1.4918   -1.7038 C   0  0  0  0  0  0
   -4.7692    1.2912   -0.7218 C   0  0  0  0  0  0
   -5.1225    0.6629    0.5024 C   0  0  0  0  0  0
   -6.4515    0.2444    0.7293 C   0  0  0  0  0  0
   -4.0475    0.4613    1.5353 C   0  0  0  0  0  0
   -4.2758   -0.0750    2.6184 O   0  0  0  0  0  0
   -2.8270    0.9098    1.1838 N   0  3  0  0  0  0
   -2.5683    1.5169   -0.0517 C   0  0  0  0  0  0
   -3.4532    1.7176   -0.9812 N   0  0  0  0  0  0
   -1.1111    1.9148   -0.1971 C   0  0  0  0  0  0
   -0.1759    0.7011   -0.3746 C   0  0  0  0  0  0
    1.2967    1.1001   -0.5073 C   0  0  0  0  0  0
    1.7478    2.0127    0.1853 O   0  0  0  0  0  0
    2.0151    0.3926   -1.3994 N   0  0  0  0  0  0
    3.3947    0.5133   -1.7118 C   0  0  0  0  0  0
    4.2366    1.3529   -1.0997 N   0  3  0  0  0  0
    5.5364    1.2482   -1.6000 C   0  0  0  0  0  0
    5.6744    0.3173   -2.6013 C   0  0  0  0  0  0
    4.1553   -0.4679   -2.9543 S   0  0  0  0  0  0
    6.9188   -0.0377   -3.3462 C   0  0  0  0  0  0
    7.2326    0.9688   -4.4366 C   0  0  0  0  0  0
    8.1353    2.0247   -4.1901 C   0  0  0  0  0  0
    8.4211    2.9615   -5.2022 C   0  0  0  0  0  0
    7.8050    2.8470   -6.4636 C   0  0  0  0  0  0
    6.9023    1.7946   -6.7127 C   0  0  0  0  0  0
    6.6167    0.8571   -5.7010 C   0  0  0  0  0  0
    6.3078    1.6828   -7.9243 F   0  0  0  0  0  0
    8.0812    3.7491   -7.4353 F   0  0  0  0  0  0
   -1.9815    0.8060    1.8797 H   0  0  0  0  0  0
   -8.4485    0.1306   -0.0879 H   0  0  0  0  0  0
   -7.8399    1.2304   -2.2325 H   0  0  0  0  0  0
   -5.5080    1.9689   -2.6394 H   0  0  0  0  0  0
   -6.7276   -0.2350    1.6572 H   0  0  0  0  0  0
   -0.9939    2.5615   -1.0792 H   0  0  0  0  0  0
   -0.7881    2.4595    0.7023 H   0  0  0  0  0  0
   -0.2666    0.0376    0.4981 H   0  0  0  0  0  0
   -0.4579    0.1508   -1.2844 H   0  0  0  0  0  0
    1.5305   -0.3949   -1.9952 H   0  0  0  0  0  0
    6.3086    1.8786   -1.1845 H   0  0  0  0  0  0
    7.7686   -0.0652   -2.6483 H   0  0  0  0  0  0
    6.7967   -1.0256   -3.8143 H   0  0  0  0  0  0
    8.6092    2.1204   -3.2243 H   0  0  0  0  0  0
    9.1128    3.7685   -5.0105 H   0  0  0  0  0  0
    5.9220    0.0533   -5.8966 H   0  0  0  0  0  0
    3.8691    2.0171   -0.3035 H   0  0  0  0  0  0
   -3.2099    2.1987   -1.9401 H   0  0  0  0  0  0
  1  6  1  0  0  0
  1  2  2  0  0  0
  1 32  1  0  0  0
  2  3  1  0  0  0
  2 33  1  0  0  0
  3  4  2  0  0  0
  3 34  1  0  0  0
  4 11  1  0  0  0
  4  5  1  0  0  0
  5  6  2  0  0  0
  5  7  1  0  0  0
  6 35  1  0  0  0
  7  8  2  0  0  0
  7  9  1  0  0  0
  9 31  1  0  0  0
  9 10  2  0  0  0
 10 11  1  0  0  0
 10 12  1  0  0  0
 11 48  1  0  0  0
 12 13  1  0  0  0
 12 36  1  0  0  0
 12 37  1  0  0  0
 13 14  1  0  0  0
 13 38  1  0  0  0
 13 39  1  0  0  0
 14 15  2  0  0  0
 14 16  1  0  0  0
 16 17  1  0  0  0
 16 40  1  0  0  0
 17 21  1  0  0  0
 17 18  2  0  0  0
 18 19  1  0  0  0
 18 47  1  0  0  0
 19 20  2  0  0  0
 19 41  1  0  0  0
 20 21  1  0  0  0
 20 22  1  0  0  0
 22 23  1  0  0  0
 22 42  1  0  0  0
 22 43  1  0  0  0
 23 28  1  0  0  0
 23 24  2  0  0  0
 24 25  1  0  0  0
 24 44  1  0  0  0
 25 26  2  0  0  0
 25 45  1  0  0  0
 26 27  1  0  0  0
 26 30  1  0  0  0
 27 28  2  0  0  0
 27 29  1  0  0  0
 28 46  1  0  0  0
M  CHG  2   9   1  18   1
M  END
> <s_m_source_file>
SM18.smi

> <i_m_source_file_index>
1

> <i_lp_mmshare_version>
38013

> <i_f3d_flags>
0

> <s_lp_Force_Field>
OPLS_2005

> <r_lp_Energy>
17.4490160392642

> <b_lp_Chiralities_Consistent>
1

> <s_lp_Variant>
SM18-1

> <r_epik_Ionization_Penalty>
  2.9728

> <r_epik_Ionization_Penalty_Charging>
  2.8674

> <r_epik_Ionization_Penalty_Neutral>
  0.1054

> <r_epik_State_Penalty>
  1.5729

> <r_epik_Charging_Adjusted_Penalty>
4.44030129911388

> <i_epik_Tot_Q>
2

> <i_epik_Tot_abs_Q>
2

$$$$
SM18
                    3D
 Structure written by MMmdl.
 46 49  0  0  1  0            999 V2000
   -7.4312    0.4498   -0.2607 C   0  0  0  0  0  0
   -7.0864    1.0729   -1.4751 C   0  0  0  0  0  0
   -5.7613    1.4918   -1.7038 C   0  0  0  0  0  0
   -4.7692    1.2912   -0.7218 C   0  0  0  0  0  0
   -5.1225    0.6629    0.5024 C   0  0  0  0  0  0
   -6.4515    0.2442    0.7292 C   0  0  0  0  0  0
   -4.0475    0.4613    1.5353 C   0  0  0  0  0  0
   -4.2758   -0.0750    2.6184 O   0  0  0  0  0  0
   -2.8278    0.9129    1.1852 N   0  0  0  0  0  0
   -2.5691    1.5200   -0.0503 C   0  0  0  0  0  0
   -3.4536    1.7192   -0.9805 N   0  0  0  0  0  0
   -1.1145    1.9294   -0.1907 C   0  0  0  0  0  0
   -0.1688    0.7230   -0.3622 C   0  0  0  0  0  0
    1.3011    1.1337   -0.4897 C   0  0  0  0  0  0
    1.7420    2.0512    0.2030 O   0  0  0  0  0  0
    2.0287    0.4305   -1.3776 N   0  0  0  0  0  0
    3.4086    0.5618   -1.6847 C   0  0  0  0  0  0
    4.2412    1.4093   -1.0707 N   0  0  0  0  0  0
    5.5438    1.3142   -1.5656 C   0  0  0  0  0  0
    5.6933    0.3827   -2.5647 C   0  0  0  0  0  0
    4.1821   -0.4154   -2.9223 S   0  0  0  0  0  0
    6.9435    0.0365   -3.3039 C   0  0  0  0  0  0
    7.2535    1.0436   -4.3949 C   0  0  0  0  0  0
    8.1466    2.1072   -4.1468 C   0  0  0  0  0  0
    8.4289    3.0446   -5.1594 C   0  0  0  0  0  0
    7.8189    2.9228   -6.4230 C   0  0  0  0  0  0
    6.9257    1.8626   -6.6738 C   0  0  0  0  0  0
    6.6437    0.9247   -5.6616 C   0  0  0  0  0  0
    6.3370    1.7438   -7.8876 F   0  0  0  0  0  0
    8.0916    3.8253   -7.3952 F   0  0  0  0  0  0
   -3.2103    2.2002   -1.9394 H   0  0  0  0  0  0
   -8.3729    0.1532   -0.1014 H   0  0  0  0  0  0
   -7.7847    1.2180   -2.1760 H   0  0  0  0  0  0
   -5.5188    1.9342   -2.5672 H   0  0  0  0  0  0
   -6.6973   -0.1981    1.5917 H   0  0  0  0  0  0
   -0.8340    2.4895    0.7136 H   0  0  0  0  0  0
   -1.0334    2.5867   -1.0690 H   0  0  0  0  0  0
   -0.2577    0.0604    0.5113 H   0  0  0  0  0  0
   -0.4427    0.1688   -1.2721 H   0  0  0  0  0  0
    1.5529   -0.3620   -1.9739 H   0  0  0  0  0  0
    6.3309    1.8496   -1.2593 H   0  0  0  0  0  0
    7.7907    0.0172   -2.6026 H   0  0  0  0  0  0
    6.8314   -0.9531   -3.7708 H   0  0  0  0  0  0
    8.6159    2.2085   -3.1792 H   0  0  0  0  0  0
    9.1133    3.8574   -4.9664 H   0  0  0  0  0  0
    5.9563    0.1149   -5.8585 H   0  0  0  0  0  0
  1  6  2  0  0  0
  1 32  1  0  0  0
  1  2  1  0  0  0
  2 33  1  0  0  0
  2  3  2  0  0  0
  3 34  1  0  0  0
  3  4  1  0  0  0
  4  5  2  0  0  0
  4 11  1  0  0  0
  5  7  1  0  0  0
  5  6  1  0  0  0
  6 35  1  0  0  0
  7  8  2  0  0  0
  7  9  1  0  0  0
  9 10  2  0  0  0
 10 11  1  0  0  0
 10 12  1  0  0  0
 11 31  1  0  0  0
 12 13  1  0  0  0
 12 36  1  0  0  0
 12 37  1  0  0  0
 13 14  1  0  0  0
 13 38  1  0  0  0
 13 39  1  0  0  0
 14 15  2  0  0  0
 14 16  1  0  0  0
 16 17  1  0  0  0
 16 40  1  0  0  0
 17 21  1  0  0  0
 17 18  2  0  0  0
 18 19  1  0  0  0
 19 20  2  0  0  0
 19 41  1  0  0  0
 20 21  1  0  0  0
 20 22  1  0  0  0
 22 23  1  0  0  0
 22 42  1  0  0  0
 22 43  1  0  0  0
 23 28  1  0  0  0
 23 24  2  0  0  0
 24 25  1  0  0  0
 24 44  1  0  0  0
 25 26  2  0  0  0
 25 45  1  0  0  0
 26 27  1  0  0  0
 26 30  1  0  0  0
 27 28  2  0  0  0
 27 29  1  0  0  0
 28 46  1  0  0  0
M  END
> <s_m_source_file>
SM18.smi

> <i_m_source_file_index>
1

> <i_lp_mmshare_version>
38013

> <i_f3d_flags>
0

> <s_lp_Force_Field>
OPLS_2005

> <r_lp_Energy>
17.4490160392642

> <b_lp_Chiralities_Consistent>
1

> <s_lp_Variant>
SM18-1

> <r_lp_tautomer_probability>
0.115935005679211

> <r_epik_Ionization_Penalty>
  0.5808

> <r_epik_Ionization_Penalty_Charging>
  0.0000

> <r_epik_Ionization_Penalty_Neutral>
  0.5808

> <r_epik_State_Penalty>
  2.4647

> <r_epik_Charging_Adjusted_Penalty>
2.46468102992489

> <i_epik_Tot_Q>
0

> <i_epik_Tot_abs_Q>
0

$$$$
SM18
                    3D
 Structure written by MMmdl.
 47 50  0  0  1  0            999 V2000
   -7.4312    0.4498   -0.2607 C   0  0  0  0  0  0
   -7.0864    1.0729   -1.4751 C   0  0  0  0  0  0
   -5.7613    1.4918   -1.7038 C   0  0  0  0  0  0
   -4.7692    1.2912   -0.7218 C   0  0  0  0  0  0
   -5.1225    0.6629    0.5024 C   0  0  0  0  0  0
   -6.4515    0.2442    0.7292 C   0  0  0  0  0  0
   -4.0475    0.4613    1.5353 C   0  0  0  0  0  0
   -4.2758   -0.0750    2.6184 O   0  0  0  0  0  0
   -2.8278    0.9129    1.1852 N   0  0  0  0  0  0
   -2.5691    1.5200   -0.0503 C   0  0  0  0  0  0
   -3.4536    1.7192   -0.9805 N   0  0  0  0  0  0
   -1.1145    1.9294   -0.1907 C   0  0  0  0  0  0
   -0.1688    0.7230   -0.3622 C   0  0  0  0  0  0
    1.3011    1.1337   -0.4897 C   0  0  0  0  0  0
    1.7420    2.0512    0.2030 O   0  0  0  0  0  0
    2.0287    0.4305   -1.3776 N   0  0  0  0  0  0
    3.4086    0.5618   -1.6847 C   0  0  0  0  0  0
    4.2412    1.4093   -1.0707 N   0  3  0  0  0  0
    5.5438    1.3142   -1.5656 C   0  0  0  0  0  0
    5.6933    0.3827   -2.5647 C   0  0  0  0  0  0
    4.1821   -0.4154   -2.9223 S   0  0  0  0  0  0
    6.9435    0.0365   -3.3039 C   0  0  0  0  0  0
    7.2535    1.0436   -4.3949 C   0  0  0  0  0  0
    8.1466    2.1072   -4.1468 C   0  0  0  0  0  0
    8.4289    3.0446   -5.1594 C   0  0  0  0  0  0
    7.8189    2.9228   -6.4230 C   0  0  0  0  0  0
    6.9257    1.8626   -6.6738 C   0  0  0  0  0  0
    6.6437    0.9247   -5.6616 C   0  0  0  0  0  0
    6.3370    1.7438   -7.8876 F   0  0  0  0  0  0
    8.0916    3.8253   -7.3952 F   0  0  0  0  0  0
   -3.2103    2.2002   -1.9394 H   0  0  0  0  0  0
   -8.3729    0.1532   -0.1014 H   0  0  0  0  0  0
   -7.7847    1.2180   -2.1760 H   0  0  0  0  0  0
   -5.5188    1.9342   -2.5672 H   0  0  0  0  0  0
   -6.6973   -0.1981    1.5917 H   0  0  0  0  0  0
   -0.8340    2.4895    0.7136 H   0  0  0  0  0  0
   -1.0334    2.5867   -1.0690 H   0  0  0  0  0  0
   -0.2577    0.0604    0.5113 H   0  0  0  0  0  0
   -0.4427    0.1688   -1.2721 H   0  0  0  0  0  0
    1.5529   -0.3620   -1.9739 H   0  0  0  0  0  0
    6.3309    1.8496   -1.2593 H   0  0  0  0  0  0
    7.7907    0.0172   -2.6026 H   0  0  0  0  0  0
    6.8314   -0.9531   -3.7708 H   0  0  0  0  0  0
    8.6159    2.2085   -3.1792 H   0  0  0  0  0  0
    9.1133    3.8574   -4.9664 H   0  0  0  0  0  0
    5.9563    0.1149   -5.8585 H   0  0  0  0  0  0
    3.8651    2.0719   -0.2773 H   0  0  0  0  0  0
  1  6  2  0  0  0
  1 32  1  0  0  0
  1  2  1  0  0  0
  2 33  1  0  0  0
  2  3  2  0  0  0
  3 34  1  0  0  0
  3  4  1  0  0  0
  4  5  2  0  0  0
  4 11  1  0  0  0
  5  7  1  0  0  0
  5  6  1  0  0  0
  6 35  1  0  0  0
  7  8  2  0  0  0
  7  9  1  0  0  0
  9 10  2  0  0  0
 10 11  1  0  0  0
 10 12  1  0  0  0
 11 31  1  0  0  0
 12 13  1  0  0  0
 12 36  1  0  0  0
 12 37  1  0  0  0
 13 14  1  0  0  0
 13 38  1  0  0  0
 13 39  1  0  0  0
 14 15  2  0  0  0
 14 16  1  0  0  0
 16 17  1  0  0  0
 16 40  1  0  0  0
 17 21  1  0  0  0
 17 18  2  0  0  0
 18 19  1  0  0  0
 18 47  1  0  0  0
 19 20  2  0  0  0
 19 41  1  0  0  0
 20 21  1  0  0  0
 20 22  1  0  0  0
 22 23  1  0  0  0
 22 42  1  0  0  0
 22 43  1  0  0  0
 23 28  1  0  0  0
 23 24  2  0  0  0
 24 25  1  0  0  0
 24 44  1  0  0  0
 25 26  2  0  0  0
 25 45  1  0  0  0
 26 27  1  0  0  0
 26 30  1  0  0  0
 27 28  2  0  0  0
 27 29  1  0  0  0
 28 46  1  0  0  0
M  CHG  1  18   1
M  END
> <s_m_source_file>
SM18.smi

> <i_m_source_file_index>
1

> <i_lp_mmshare_version>
38013

> <i_f3d_flags>
0

> <s_lp_Force_Field>
OPLS_2005

> <r_lp_Energy>
17.4490160392642

> <b_lp_Chiralities_Consistent>
1

> <s_lp_Variant>
SM18-1

> <r_lp_tautomer_probability>
0.116051

> <r_epik_Ionization_Penalty>
  0.8447

> <r_epik_Ionization_Penalty_Charging>
  0.5023

> <r_epik_Ionization_Penalty_Neutral>
  0.3424

> <r_epik_State_Penalty>
  2.6824

> <r_epik_Charging_Adjusted_Penalty>
3.18469087982472

> <i_epik_Tot_Q>
1

> <i_epik_Tot_abs_Q>
1

$$$$
SM18
                    3D
 Structure written by MMmdl.
 48 51  0  0  1  0            999 V2000
   -7.4314    0.4503   -0.2605 C   0  0  0  0  0  0
   -7.0865    1.0734   -1.4748 C   0  0  0  0  0  0
   -5.7613    1.4918   -1.7038 C   0  0  0  0  0  0
   -4.7692    1.2912   -0.7218 C   0  0  0  0  0  0
   -5.1225    0.6629    0.5024 C   0  0  0  0  0  0
   -6.4515    0.2444    0.7293 C   0  0  0  0  0  0
   -4.0475    0.4613    1.5353 C   0  0  0  0  0  0
   -4.2758   -0.0750    2.6184 O   0  0  0  0  0  0
   -2.8270    0.9098    1.1838 N   0  0  0  0  0  0
   -2.5683    1.5169   -0.0517 C   0  0  0  0  0  0
   -3.4532    1.7176   -0.9812 N   0  0  0  0  0  0
   -1.1111    1.9148   -0.1971 C   0  0  0  0  0  0
   -0.1759    0.7011   -0.3746 C   0  0  0  0  0  0
    1.2967    1.1001   -0.5073 C   0  0  0  0  0  0
    1.7478    2.0127    0.1853 O   0  0  0  0  0  0
    2.0151    0.3926   -1.3994 N   0  0  0  0  0  0
    3.3947    0.5133   -1.7118 C   0  0  0  0  0  0
    4.2366    1.3529   -1.0997 N   0  2  0  0  0  0
    5.5364    1.2482   -1.6000 C   0  0  0  0  0  0
    5.6744    0.3173   -2.6013 C   0  0  0  0  0  0
    4.1553   -0.4679   -2.9543 S   0  0  0  0  0  0
    6.9188   -0.0377   -3.3462 C   0  0  0  0  0  0
    7.2326    0.9688   -4.4366 C   0  0  0  0  0  0
    8.1353    2.0247   -4.1901 C   0  0  0  0  0  0
    8.4211    2.9615   -5.2022 C   0  0  0  0  0  0
    7.8050    2.8470   -6.4636 C   0  0  0  0  0  0
    6.9023    1.7946   -6.7127 C   0  0  0  0  0  0
    6.6167    0.8571   -5.7010 C   0  0  0  0  0  0
    6.3078    1.6828   -7.9243 F   0  0  0  0  0  0
    8.0812    3.7491   -7.4353 F   0  0  0  0  0  0
   -1.9815    0.8060    1.8797 H   0  0  0  0  0  0
   -8.4485    0.1306   -0.0879 H   0  0  0  0  0  0
   -7.8399    1.2304   -2.2325 H   0  0  0  0  0  0
   -5.5080    1.9689   -2.6394 H   0  0  0  0  0  0
   -6.7276   -0.2350    1.6572 H   0  0  0  0  0  0
   -0.9939    2.5615   -1.0792 H   0  0  0  0  0  0
   -0.7881    2.4595    0.7023 H   0  0  0  0  0  0
   -0.2666    0.0376    0.4981 H   0  0  0  0  0  0
   -0.4579    0.1508   -1.2844 H   0  0  0  0  0  0
    1.5305   -0.3949   -1.9952 H   0  0  0  0  0  0
    6.4086    1.8287   -1.2648 H   0  0  0  0  0  0
    7.7686   -0.0652   -2.6483 H   0  0  0  0  0  0
    6.7967   -1.0256   -3.8143 H   0  0  0  0  0  0
    8.6092    2.1204   -3.2243 H   0  0  0  0  0  0
    9.1128    3.7685   -5.0105 H   0  0  0  0  0  0
    5.9220    0.0533   -5.8966 H   0  0  0  0  0  0
    3.9025    1.9567   -0.3759 H   0  0  0  0  0  0
    4.7294    1.0582   -0.2809 H   0  0  0  0  0  0
  1  6  1  0  0  0
  1  2  2  0  0  0
  1 32  1  0  0  0
  2  3  1  0  0  0
  2 33  1  0  0  0
  3  4  2  0  0  0
  3 34  1  0  0  0
  4 11  1  0  0  0
  4  5  1  0  0  0
  5  6  2  0  0  0
  5  7  1  0  0  0
  6 35  1  0  0  0
  7  8  2  0  0  0
  7  9  1  0  0  0
  9 31  1  0  0  0
  9 10  1  0  0  0
 10 11  2  0  0  0
 10 12  1  0  0  0
 12 13  1  0  0  0
 12 36  1  0  0  0
 12 37  1  0  0  0
 13 14  1  0  0  0
 13 38  1  0  0  0
 13 39  1  0  0  0
 14 15  2  0  0  0
 14 16  1  0  0  0
 16 17  1  0  0  0
 16 40  1  0  0  0
 17 21  1  0  0  0
 17 18  2  0  0  0
 18 19  1  0  0  0
 18 47  1  0  0  0
 18 48  1  0  0  0
 19 20  2  0  0  0
 19 41  1  0  0  0
 20 21  1  0  0  0
 20 22  1  0  0  0
 22 23  1  0  0  0
 22 42  1  0  0  0
 22 43  1  0  0  0
 23 28  1  0  0  0
 23 24  2  0  0  0
 24 25  1  0  0  0
 24 44  1  0  0  0
 25 26  2  0  0  0
 25 45  1  0  0  0
 26 27  1  0  0  0
 26 30  1  0  0  0
 27 28  2  0  0  0
 27 29  1  0  0  0
 28 46  1  0  0  0
M  CHG  1  18   2
M  END
> <s_m_source_file>
SM18.smi

> <i_m_source_file_index>
1

> <i_lp_mmshare_version>
38013

> <i_f3d_flags>
0

> <s_lp_Force_Field>
OPLS_2005

> <r_lp_Energy>
17.4490160392642

> <b_lp_Chiralities_Consistent>
1

> <s_lp_Variant>
SM18-1

> <r_epik_Ionization_Penalty>
 17.7767

> <r_epik_Ionization_Penalty_Charging>
 17.7212

> <r_epik_Ionization_Penalty_Neutral>
  0.0555

> <r_epik_State_Penalty>
  2.8374

> <r_epik_Charging_Adjusted_Penalty>
20.5585929603935

> <i_epik_Tot_Q>
2

> <i_epik_Tot_abs_Q>
2

> <s_epik_Chemistry_Notes>
This compound has an imine and may undergo hydrolysis.

$$$$
SM18
                    3D
 Structure written by MMmdl.
 47 50  0  0  1  0            999 V2000
   -7.4314    0.4503   -0.2605 C   0  0  0  0  0  0
   -7.0865    1.0734   -1.4748 C   0  0  0  0  0  0
   -5.7613    1.4918   -1.7038 C   0  0  0  0  0  0
   -4.7692    1.2912   -0.7218 C   0  0  0  0  0  0
   -5.1225    0.6629    0.5024 C   0  0  0  0  0  0
   -6.4515    0.2444    0.7293 C   0  0  0  0  0  0
   -4.0475    0.4613    1.5353 C   0  0  0  0  0  0
   -4.2758   -0.0750    2.6184 O   0  0  0  0  0  0
   -2.8270    0.9098    1.1838 N   0  0  0  0  0  0
   -2.5683    1.5169   -0.0517 C   0  0  0  0  0  0
   -3.4532    1.7176   -0.9812 N   0  0  0  0  0  0
   -1.1111    1.9148   -0.1971 C   0  0  0  0  0  0
   -0.1759    0.7011   -0.3746 C   0  0  0  0  0  0
    1.2967    1.1001   -0.5073 C   0  0  0  0  0  0
    1.7478    2.0127    0.1853 O   0  3  0  0  0  0
    2.0151    0.3926   -1.3994 N   0  0  0  0  0  0
    3.3947    0.5133   -1.7118 C   0  0  0  0  0  0
    4.2366    1.3529   -1.0997 N   0  0  0  0  0  0
    5.5364    1.2482   -1.6000 C   0  0  0  0  0  0
    5.6744    0.3173   -2.6013 C   0  0  0  0  0  0
    4.1553   -0.4679   -2.9543 S   0  0  0  0  0  0
    6.9188   -0.0377   -3.3462 C   0  0  0  0  0  0
    7.2326    0.9688   -4.4366 C   0  0  0  0  0  0
    8.1353    2.0247   -4.1901 C   0  0  0  0  0  0
    8.4211    2.9615   -5.2022 C   0  0  0  0  0  0
    7.8050    2.8470   -6.4636 C   0  0  0  0  0  0
    6.9023    1.7946   -6.7127 C   0  0  0  0  0  0
    6.6167    0.8571   -5.7010 C   0  0  0  0  0  0
    6.3078    1.6828   -7.9243 F   0  0  0  0  0  0
    8.0812    3.7491   -7.4353 F   0  0  0  0  0  0
   -1.9815    0.8060    1.8797 H   0  0  0  0  0  0
   -8.4485    0.1306   -0.0879 H   0  0  0  0  0  0
   -7.8399    1.2304   -2.2325 H   0  0  0  0  0  0
   -5.5080    1.9689   -2.6394 H   0  0  0  0  0  0
   -6.7276   -0.2350    1.6572 H   0  0  0  0  0  0
   -0.9939    2.5615   -1.0792 H   0  0  0  0  0  0
   -0.7881    2.4595    0.7023 H   0  0  0  0  0  0
   -0.2666    0.0376    0.4981 H   0  0  0  0  0  0
   -0.4579    0.1508   -1.2844 H   0  0  0  0  0  0
    1.5305   -0.3949   -1.9952 H   0  0  0  0  0  0
    6.3086    1.8786   -1.1845 H   0  0  0  0  0  0
    7.7686   -0.0652   -2.6483 H   0  0  0  0  0  0
    6.7967   -1.0256   -3.8143 H   0  0  0  0  0  0
    8.6092    2.1204   -3.2243 H   0  0  0  0  0  0
    9.1128    3.7685   -5.0105 H   0  0  0  0  0  0
    5.9220    0.0533   -5.8966 H   0  0  0  0  0  0
    2.8064    2.2984    0.0971 H   0  0  0  0  0  0
  1  6  1  0  0  0
  1  2  2  0  0  0
  1 32  1  0  0  0
  2  3  1  0  0  0
  2 33  1  0  0  0
  3  4  2  0  0  0
  3 34  1  0  0  0
  4 11  1  0  0  0
  4  5  1  0  0  0
  5  6  2  0  0  0
  5  7  1  0  0  0
  6 35  1  0  0  0
  7  8  2  0  0  0
  7  9  1  0  0  0
  9 31  1  0  0  0
  9 10  1  0  0  0
 10 11  2  0  0  0
 10 12  1  0  0  0
 12 13  1  0  0  0
 12 36  1  0  0  0
 12 37  1  0  0  0
 13 14  1  0  0  0
 13 38  1  0  0  0
 13 39  1  0  0  0
 14 15  2  0  0  0
 14 16  1  0  0  0
 15 47  1  0  0  0
 16 17  1  0  0  0
 16 40  1  0  0  0
 17 21  1  0  0  0
 17 18  2  0  0  0
 18 19  1  0  0  0
 19 20  2  0  0  0
 19 41  1  0  0  0
 20 21  1  0  0  0
 20 22  1  0  0  0
 22 23  1  0  0  0
 22 42  1  0  0  0
 22 43  1  0  0  0
 23 28  1  0  0  0
 23 24  2  0  0  0
 24 25  1  0  0  0
 24 44  1  0  0  0
 25 26  2  0  0  0
 25 45  1  0  0  0
 26 27  1  0  0  0
 26 30  1  0  0  0
 27 28  2  0  0  0
 27 29  1  0  0  0
 28 46  1  0  0  0
M  CHG  1  15   1
M  END
> <s_m_source_file>
SM18.smi

> <i_m_source_file_index>
1

> <i_lp_mmshare_version>
38013

> <i_f3d_flags>
0

> <s_lp_Force_Field>
OPLS_2005

> <r_lp_Energy>
17.4490160392642

> <b_lp_Chiralities_Consistent>
1

> <s_lp_Variant>
SM18-1

> <r_epik_Ionization_Penalty>
  6.2682

> <r_epik_Ionization_Penalty_Charging>
  3.8445

> <r_epik_Ionization_Penalty_Neutral>
  2.4237

> <r_epik_State_Penalty>
  4.6632

> <r_epik_Charging_Adjusted_Penalty>
8.50770057495796

> <i_epik_Tot_Q>
1

> <i_epik_Tot_abs_Q>
1

$$$$
SM18
                    3D
 Structure written by MMmdl.
 46 49  0  0  1  0            999 V2000
   -7.4273    0.4250   -0.2364 C   0  0  0  0  0  0
   -7.0859    1.0484   -1.4515 C   0  0  0  0  0  0
   -5.7619    1.4693   -1.6830 C   0  0  0  0  0  0
   -4.7677    1.2710   -0.7028 C   0  0  0  0  0  0
   -5.1174    0.6423    0.5222 C   0  0  0  0  0  0
   -6.4452    0.2213    0.7517 C   0  0  0  0  0  0
   -4.0401    0.4432    1.5531 C   0  0  0  0  0  0
   -4.2654   -0.0933    2.6368 O   0  0  0  0  0  0
   -2.8212    0.8939    1.1993 N   0  0  0  0  0  0
   -2.5660    1.5013   -0.0368 C   0  0  0  0  0  0
   -3.4530    1.7000   -0.9648 N   0  0  0  0  0  0
   -1.1098    1.9020   -0.1851 C   0  0  0  0  0  0
   -0.1726    0.6901   -0.3639 C   0  0  0  0  0  0
    1.2990    1.0920   -0.4995 C   0  0  0  0  0  0
    1.7496    2.0057    0.1921 O   0  0  0  0  0  0
    2.0172    0.3857   -1.3927 N   0  0  0  0  0  0
    3.3960    0.5090   -1.7076 C   0  0  0  0  0  0
    4.2344    1.3602   -1.1067 N   0  0  0  0  0  0
    5.5348    1.2536   -1.6050 C   0  0  0  0  0  0
    5.6755    0.3139   -2.5977 C   0  0  0  0  0  0
    4.1562   -0.4710   -2.9512 S   0  0  0  0  0  0
    6.9213   -0.0453   -3.3382 C   0  0  0  0  0  0
    7.2339    0.9518   -4.4376 C   0  0  0  0  0  0
    8.1342    2.0118   -4.2001 C   0  0  0  0  0  0
    8.4189    2.9400   -5.2205 C   0  0  0  0  0  0
    7.8041    2.8126   -6.4812 C   0  0  0  0  0  0
    6.9037    1.7561   -6.7214 C   0  0  0  0  0  0
    6.6193    0.8273   -5.7014 C   0  0  0  0  0  0
    6.3105    1.6320   -7.9324 F   0  0  0  0  0  0
    8.0791    3.7063   -7.4609 F   0  0  0  0  0  0
   -1.9742    0.7920    1.8936 H   0  0  0  0  0  0
   -8.3680    0.1269   -0.0743 H   0  0  0  0  0  0
   -7.7840    1.1929   -2.1528 H   0  0  0  0  0  0
   -5.5289    1.9113   -2.5493 H   0  0  0  0  0  0
   -6.6871   -0.2218    1.6149 H   0  0  0  0  0  0
   -0.9955    2.5487   -1.0676 H   0  0  0  0  0  0
   -0.7863    2.4476    0.7136 H   0  0  0  0  0  0
   -0.2604    0.0267    0.5091 H   0  0  0  0  0  0
   -0.4551    0.1390   -1.2730 H   0  0  0  0  0  0
    4.0079    2.0855   -0.3114 H   0  0  0  0  0  0
    6.3263    1.7857   -1.3045 H   0  0  0  0  0  0
    6.7846   -1.0445   -3.7775 H   0  0  0  0  0  0
    7.7535   -0.0715   -2.6195 H   0  0  0  0  0  0
    8.6071    2.1173   -3.2347 H   0  0  0  0  0  0
    9.1088    3.7501   -5.0356 H   0  0  0  0  0  0
    5.9264    0.0203   -5.8902 H   0  0  0  0  0  0
  1  6  1  0  0  0
  1  2  2  0  0  0
  1 32  1  0  0  0
  2  3  1  0  0  0
  2 33  1  0  0  0
  3  4  2  0  0  0
  3 34  1  0  0  0
  4 11  1  0  0  0
  4  5  1  0  0  0
  5  6  2  0  0  0
  5  7  1  0  0  0
  6 35  1  0  0  0
  7  8  2  0  0  0
  7  9  1  0  0  0
  9 31  1  0  0  0
  9 10  1  0  0  0
 10 11  2  0  0  0
 10 12  1  0  0  0
 12 13  1  0  0  0
 12 36  1  0  0  0
 12 37  1  0  0  0
 13 38  1  0  0  0
 13 39  1  0  0  0
 13 14  1  0  0  0
 14 16  1  0  0  0
 14 15  2  0  0  0
 16 17  2  0  0  0
 17 21  1  0  0  0
 17 18  1  0  0  0
 18 40  1  0  0  0
 18 19  1  0  0  0
 19 41  1  0  0  0
 19 20  2  0  0  0
 20 22  1  0  0  0
 20 21  1  0  0  0
 22 23  1  0  0  0
 22 42  1  0  0  0
 22 43  1  0  0  0
 23 28  1  0  0  0
 23 24  2  0  0  0
 24 25  1  0  0  0
 24 44  1  0  0  0
 25 26  2  0  0  0
 25 45  1  0  0  0
 26 27  1  0  0  0
 26 30  1  0  0  0
 27 28  2  0  0  0
 27 29  1  0  0  0
 28 46  1  0  0  0
M  END
> <s_m_source_file>
SM18.smi

> <i_m_source_file_index>
1

> <i_lp_mmshare_version>
38013

> <i_f3d_flags>
0

> <s_lp_Force_Field>
OPLS_2005

> <r_lp_Energy>
17.4490160392642

> <b_lp_Chiralities_Consistent>
1

> <s_lp_Variant>
SM18-1

> <r_lp_tautomer_probability>
0.000441748120917748

> <r_epik_Ionization_Penalty>
  2.9723

> <r_epik_Ionization_Penalty_Charging>
  1.0888

> <r_epik_Ionization_Penalty_Neutral>
  1.8836

> <r_epik_State_Penalty>
  5.7928

> <r_epik_Charging_Adjusted_Penalty>
6.88155913256163

> <i_epik_Tot_Q>
0

> <i_epik_Tot_abs_Q>
0

$$$$
SM18
                    3D
 Structure written by MMmdl.
 46 49  0  0  1  0            999 V2000
   -6.8467   -1.2915    1.6330 C   0  0  0  0  0  0
   -5.9153   -1.8011    2.5574 C   0  0  0  0  0  0
   -4.5708   -1.9833    2.1794 C   0  0  0  0  0  0
   -4.1453   -1.6579    0.8748 C   0  0  0  0  0  0
   -5.0893   -1.1450   -0.0546 C   0  0  0  0  0  0
   -6.4362   -0.9633    0.3269 C   0  0  0  0  0  0
   -4.6121   -0.8068   -1.4406 C   0  0  0  0  0  0
   -5.3693   -0.3582   -2.2999 O   0  0  0  0  0  0
   -3.3030   -1.0314   -1.6642 N   0  0  0  0  0  0
   -2.4417   -1.5388   -0.6832 C   0  0  0  0  0  0
   -2.7945   -1.8484    0.5280 N   0  0  0  0  0  0
   -1.0193   -1.6820   -1.1924 C   0  0  0  0  0  0
   -0.3159   -0.3233   -1.3883 C   0  0  0  0  0  0
    1.1149   -0.4656   -1.9157 C   0  0  0  0  0  0
    1.3705   -1.3161   -2.7686 O   0  0  0  0  0  0
    2.0172    0.3857   -1.3927 N   0  0  0  0  0  0
    3.3960    0.5090   -1.7076 C   0  0  0  0  0  0
    4.2344    1.3602   -1.1067 N   0  0  0  0  0  0
    5.5348    1.2536   -1.6050 C   0  0  0  0  0  0
    5.6755    0.3139   -2.5977 C   0  0  0  0  0  0
    4.1562   -0.4710   -2.9512 S   0  0  0  0  0  0
    6.9213   -0.0453   -3.3382 C   0  0  0  0  0  0
    7.2339    0.9518   -4.4376 C   0  0  0  0  0  0
    8.1342    2.0118   -4.2001 C   0  0  0  0  0  0
    8.4189    2.9400   -5.2205 C   0  0  0  0  0  0
    7.8041    2.8126   -6.4812 C   0  0  0  0  0  0
    6.9037    1.7561   -6.7214 C   0  0  0  0  0  0
    6.6193    0.8273   -5.7014 C   0  0  0  0  0  0
    6.3105    1.6320   -7.9324 F   0  0  0  0  0  0
    8.0791    3.7063   -7.4609 F   0  0  0  0  0  0
   -2.8686   -0.8148   -2.6513 H   0  0  0  0  0  0
   -7.8008   -1.1630    1.9037 H   0  0  0  0  0  0
   -6.2076   -2.0341    3.4849 H   0  0  0  0  0  0
   -3.9164   -2.3459    2.8429 H   0  0  0  0  0  0
   -7.0975   -0.6010   -0.3300 H   0  0  0  0  0  0
   -0.4285   -2.2656   -0.4710 H   0  0  0  0  0  0
   -1.0276   -2.1994   -2.1631 H   0  0  0  0  0  0
   -0.8819    0.2816   -2.1120 H   0  0  0  0  0  0
   -0.2676    0.2068   -0.4257 H   0  0  0  0  0  0
    4.0079    2.0855   -0.3114 H   0  0  0  0  0  0
    6.3263    1.7857   -1.3045 H   0  0  0  0  0  0
    6.7846   -1.0445   -3.7775 H   0  0  0  0  0  0
    7.7535   -0.0715   -2.6195 H   0  0  0  0  0  0
    8.6071    2.1173   -3.2347 H   0  0  0  0  0  0
    9.1088    3.7501   -5.0356 H   0  0  0  0  0  0
    5.9264    0.0203   -5.8902 H   0  0  0  0  0  0
  1  6  1  0  0  0
  1  2  2  0  0  0
  1 32  1  0  0  0
  2  3  1  0  0  0
  2 33  1  0  0  0
  3  4  2  0  0  0
  3 34  1  0  0  0
  4 11  1  0  0  0
  4  5  1  0  0  0
  5  6  2  0  0  0
  5  7  1  0  0  0
  6 35  1  0  0  0
  7  8  2  0  0  0
  7  9  1  0  0  0
  9 31  1  0  0  0
  9 10  1  0  0  0
 10 11  2  0  0  0
 10 12  1  0  0  0
 12 13  1  0  0  0
 12 36  1  0  0  0
 12 37  1  0  0  0
 13 38  1  0  0  0
 13 39  1  0  0  0
 13 14  1  0  0  0
 14 16  1  0  0  0
 14 15  2  0  0  0
 16 17  2  0  0  0
 17 21  1  0  0  0
 17 18  1  0  0  0
 18 40  1  0  0  0
 18 19  1  0  0  0
 19 41  1  0  0  0
 19 20  2  0  0  0
 20 22  1  0  0  0
 20 21  1  0  0  0
 22 23  1  0  0  0
 22 42  1  0  0  0
 22 43  1  0  0  0
 23 28  1  0  0  0
 23 24  2  0  0  0
 24 25  1  0  0  0
 24 44  1  0  0  0
 25 26  2  0  0  0
 25 45  1  0  0  0
 26 27  1  0  0  0
 26 30  1  0  0  0
 27 28  2  0  0  0
 27 29  1  0  0  0
 28 46  1  0  0  0
M  END
> <s_m_source_file>
SM18.smi

> <i_m_source_file_index>
1

> <i_lp_mmshare_version>
38013

> <i_f3d_flags>
0

> <s_lp_Force_Field>
OPLS_2005

> <r_lp_Energy>
17.4490160392642

> <b_lp_Chiralities_Consistent>
1

> <s_lp_Variant>
SM18-1

> <r_lp_tautomer_probability>
0.000441748120917748

> <r_epik_Ionization_Penalty>
  2.9723

> <r_epik_Ionization_Penalty_Charging>
  1.0888

> <r_epik_Ionization_Penalty_Neutral>
  1.8836

> <r_epik_State_Penalty>
  5.7928

> <r_epik_Charging_Adjusted_Penalty>
6.88155913256163

> <i_epik_Tot_Q>
0

> <i_epik_Tot_abs_Q>
0

$$$$
SM18
                    3D
 Structure written by MMmdl.
 47 50  0  0  1  0            999 V2000
   -6.9016    0.8338    2.1186 C   0  0  0  0  0  0
   -5.8898    0.6118    3.0745 C   0  0  0  0  0  0
   -4.5484    0.9108    2.7660 C   0  0  0  0  0  0
   -4.2288    1.4228    1.4940 C   0  0  0  0  0  0
   -5.2362    1.6576    0.5309 C   0  0  0  0  0  0
   -6.5792    1.3553    0.8491 C   0  0  0  0  0  0
   -4.8352    2.2210   -0.8221 C   0  0  0  0  0  0
   -5.7127    2.4189   -1.6615 O   0  0  0  0  0  0
   -3.4808    2.4949   -1.0684 N   0  0  0  0  0  0
   -2.6194    2.2572   -0.1223 C   0  0  0  0  0  0
   -2.9236    1.7461    1.1317 N   0  0  0  0  0  0
   -1.1411    2.5363   -0.3325 C   0  0  0  0  0  0
   -0.2763    1.2595   -0.2950 C   0  0  0  0  0  0
    1.2133    1.5482   -0.5020 C   0  0  0  0  0  0
    1.7383    2.4956    0.0836 O   0  0  0  0  0  0
    1.8615    0.7098   -1.3325 N   0  0  0  0  0  0
    3.2362    0.7109   -1.6873 C   0  0  0  0  0  0
    4.1458    1.5497   -1.1801 N   0  3  0  0  0  0
    5.4207    1.3156   -1.6998 C   0  0  0  0  0  0
    5.4713    0.2876   -2.6102 C   0  0  0  0  0  0
    3.8978   -0.4310   -2.8464 S   0  0  0  0  0  0
    6.6686   -0.2116   -3.3499 C   0  0  0  0  0  0
    7.1032    0.7515   -4.4381 C   0  0  0  0  0  0
    8.1301    1.6869   -4.1906 C   0  0  0  0  0  0
    8.5263    2.5855   -5.2002 C   0  0  0  0  0  0
    7.8975    2.5529   -6.4601 C   0  0  0  0  0  0
    6.8711    1.6209   -6.7102 C   0  0  0  0  0  0
    6.4749    0.7217   -5.7008 C   0  0  0  0  0  0
    6.2636    1.5885   -7.9201 F   0  0  0  0  0  0
    8.2798    3.4183   -7.4291 F   0  0  0  0  0  0
   -3.1408    2.9008   -2.0326 H   0  0  0  0  0  0
   -7.8519    0.6196    2.3445 H   0  0  0  0  0  0
   -6.1257    0.2416    3.9730 H   0  0  0  0  0  0
   -3.8319    0.7527    3.4455 H   0  0  0  0  0  0
   -7.3008    1.5109    0.1745 H   0  0  0  0  0  0
   -0.8144    3.2238    0.4616 H   0  0  0  0  0  0
   -1.0292    3.0264   -1.3109 H   0  0  0  0  0  0
   -0.3914    0.7673    0.6820 H   0  0  0  0  0  0
   -0.6004    0.5737   -1.0916 H   0  0  0  0  0  0
    1.3131   -0.1022   -1.8325 H   0  0  0  0  0  0
    6.2525    1.8202   -1.4687 H   0  0  0  0  0  0
    7.5061   -0.3393   -2.6483 H   0  0  0  0  0  0
    6.4329   -1.1781   -3.8194 H   0  0  0  0  0  0
    8.6142    1.7199   -3.2254 H   0  0  0  0  0  0
    9.3121    3.3008   -5.0075 H   0  0  0  0  0  0
    5.6851    0.0112   -5.8963 H   0  0  0  0  0  0
    3.8438    2.3084   -0.4431 H   0  0  0  0  0  0
  1  6  2  0  0  0
  1 32  1  0  0  0
  1  2  1  0  0  0
  2 33  1  0  0  0
  2  3  2  0  0  0
  3 34  1  0  0  0
  3  4  1  0  0  0
  4  5  2  0  0  0
  4 11  1  0  0  0
  5  7  1  0  0  0
  5  6  1  0  0  0
  6 35  1  0  0  0
  7  8  2  0  0  0
  7  9  1  0  0  0
  9 10  1  0  0  0
  9 31  1  0  0  0
 10 11  2  0  0  0
 10 12  1  0  0  0
 12 13  1  0  0  0
 12 36  1  0  0  0
 12 37  1  0  0  0
 13 14  1  0  0  0
 13 38  1  0  0  0
 13 39  1  0  0  0
 14 15  2  0  0  0
 14 16  1  0  0  0
 16 17  1  0  0  0
 16 40  1  0  0  0
 17 21  1  0  0  0
 17 18  2  0  0  0
 18 19  1  0  0  0
 18 47  1  0  0  0
 19 20  2  0  0  0
 19 41  1  0  0  0
 20 21  1  0  0  0
 20 22  1  0  0  0
 22 23  1  0  0  0
 22 42  1  0  0  0
 22 43  1  0  0  0
 23 28  1  0  0  0
 23 24  2  0  0  0
 24 25  1  0  0  0
 24 44  1  0  0  0
 25 26  2  0  0  0
 25 45  1  0  0  0
 26 27  1  0  0  0
 26 30  1  0  0  0
 27 28  2  0  0  0
 27 29  1  0  0  0
 28 46  1  0  0  0
M  CHG  1  18   1
M  END
> <s_m_source_file>
SM18.smi

> <i_m_source_file_index>
1

> <i_lp_mmshare_version>
38013

> <i_f3d_flags>
0

> <s_lp_Force_Field>
OPLS_2005

> <r_lp_Energy>
13.8546902704395

> <b_lp_Chiralities_Consistent>
1

> <s_lp_Variant>
SM18-2

> <r_lp_tautomer_probability>
0.883938

> <r_epik_Ionization_Penalty>
  0.6418

> <r_epik_Ionization_Penalty_Charging>
  0.5023

> <r_epik_Ionization_Penalty_Neutral>
  0.1395

> <r_epik_State_Penalty>
  0.5302

> <r_epik_Charging_Adjusted_Penalty>
1.03247944836653

> <i_epik_Tot_Q>
1

> <i_epik_Tot_abs_Q>
1

$$$$
SM18
                    3D
 Structure written by MMmdl.
 46 49  0  0  1  0            999 V2000
   -6.9016    0.8338    2.1186 C   0  0  0  0  0  0
   -5.8898    0.6118    3.0745 C   0  0  0  0  0  0
   -4.5484    0.9108    2.7660 C   0  0  0  0  0  0
   -4.2288    1.4228    1.4940 C   0  0  0  0  0  0
   -5.2362    1.6576    0.5309 C   0  0  0  0  0  0
   -6.5792    1.3553    0.8491 C   0  0  0  0  0  0
   -4.8352    2.2210   -0.8221 C   0  0  0  0  0  0
   -5.7127    2.4189   -1.6615 O   0  0  0  0  0  0
   -3.4808    2.4949   -1.0684 N   0  0  0  0  0  0
   -2.6194    2.2572   -0.1223 C   0  0  0  0  0  0
   -2.9236    1.7461    1.1317 N   0  0  0  0  0  0
   -1.1411    2.5363   -0.3325 C   0  0  0  0  0  0
   -0.2763    1.2595   -0.2950 C   0  0  0  0  0  0
    1.2133    1.5482   -0.5020 C   0  0  0  0  0  0
    1.7383    2.4956    0.0836 O   0  0  0  0  0  0
    1.8615    0.7098   -1.3325 N   0  0  0  0  0  0
    3.2362    0.7109   -1.6873 C   0  0  0  0  0  0
    4.1458    1.5497   -1.1801 N   0  0  0  0  0  0
    5.4207    1.3156   -1.6998 C   0  0  0  0  0  0
    5.4713    0.2876   -2.6102 C   0  0  0  0  0  0
    3.8978   -0.4310   -2.8464 S   0  0  0  0  0  0
    6.6686   -0.2116   -3.3499 C   0  0  0  0  0  0
    7.1032    0.7515   -4.4381 C   0  0  0  0  0  0
    8.1301    1.6869   -4.1906 C   0  0  0  0  0  0
    8.5263    2.5855   -5.2002 C   0  0  0  0  0  0
    7.8975    2.5529   -6.4601 C   0  0  0  0  0  0
    6.8711    1.6209   -6.7102 C   0  0  0  0  0  0
    6.4749    0.7217   -5.7008 C   0  0  0  0  0  0
    6.2636    1.5885   -7.9201 F   0  0  0  0  0  0
    8.2798    3.4183   -7.4291 F   0  0  0  0  0  0
   -3.1408    2.9008   -2.0326 H   0  0  0  0  0  0
   -7.8519    0.6196    2.3445 H   0  0  0  0  0  0
   -6.1257    0.2416    3.9730 H   0  0  0  0  0  0
   -3.8319    0.7527    3.4455 H   0  0  0  0  0  0
   -7.3008    1.5109    0.1745 H   0  0  0  0  0  0
   -0.8144    3.2238    0.4616 H   0  0  0  0  0  0
   -1.0292    3.0264   -1.3109 H   0  0  0  0  0  0
   -0.3914    0.7673    0.6820 H   0  0  0  0  0  0
   -0.6004    0.5737   -1.0916 H   0  0  0  0  0  0
    1.3131   -0.1022   -1.8325 H   0  0  0  0  0  0
    6.2525    1.8202   -1.4687 H   0  0  0  0  0  0
    7.5061   -0.3393   -2.6483 H   0  0  0  0  0  0
    6.4329   -1.1781   -3.8194 H   0  0  0  0  0  0
    8.6142    1.7199   -3.2254 H   0  0  0  0  0  0
    9.3121    3.3008   -5.0075 H   0  0  0  0  0  0
    5.6851    0.0112   -5.8963 H   0  0  0  0  0  0
  1  6  2  0  0  0
  1 32  1  0  0  0
  1  2  1  0  0  0
  2 33  1  0  0  0
  2  3  2  0  0  0
  3 34  1  0  0  0
  3  4  1  0  0  0
  4  5  2  0  0  0
  4 11  1  0  0  0
  5  7  1  0  0  0
  5  6  1  0  0  0
  6 35  1  0  0  0
  7  8  2  0  0  0
  7  9  1  0  0  0
  9 10  1  0  0  0
  9 31  1  0  0  0
 10 11  2  0  0  0
 10 12  1  0  0  0
 12 13  1  0  0  0
 12 36  1  0  0  0
 12 37  1  0  0  0
 13 14  1  0  0  0
 13 38  1  0  0  0
 13 39  1  0  0  0
 14 15  2  0  0  0
 14 16  1  0  0  0
 16 17  1  0  0  0
 16 40  1  0  0  0
 17 21  1  0  0  0
 17 18  2  0  0  0
 18 19  1  0  0  0
 19 20  2  0  0  0
 19 41  1  0  0  0
 20 21  1  0  0  0
 20 22  1  0  0  0
 22 23  1  0  0  0
 22 42  1  0  0  0
 22 43  1  0  0  0
 23 28  1  0  0  0
 23 24  2  0  0  0
 24 25  1  0  0  0
 24 44  1  0  0  0
 25 26  2  0  0  0
 25 45  1  0  0  0
 26 27  1  0  0  0
 26 30  1  0  0  0
 27 28  2  0  0  0
 27 29  1  0  0  0
 28 46  1  0  0  0
M  END
> <s_m_source_file>
SM18.smi

> <i_m_source_file_index>
1

> <i_lp_mmshare_version>
38013

> <i_f3d_flags>
0

> <s_lp_Force_Field>
OPLS_2005

> <r_lp_Energy>
13.8546902704395

> <b_lp_Chiralities_Consistent>
1

> <s_lp_Variant>
SM18-2

> <r_lp_tautomer_probability>
0.883054493714579

> <r_epik_Ionization_Penalty>
  0.3683

> <r_epik_Ionization_Penalty_Charging>
  0.0000

> <r_epik_Ionization_Penalty_Neutral>
  0.3683

> <r_epik_State_Penalty>
  0.5618

> <r_epik_Charging_Adjusted_Penalty>
0.561785570297078

> <i_epik_Tot_Q>
0

> <i_epik_Tot_abs_Q>
0

$$$$
SM18
                    3D
 Structure written by MMmdl.
 47 50  0  0  1  0            999 V2000
   -6.9016    0.8338    2.1186 C   0  0  0  0  0  0
   -5.8898    0.6118    3.0745 C   0  0  0  0  0  0
   -4.5484    0.9108    2.7660 C   0  0  0  0  0  0
   -4.2288    1.4228    1.4940 C   0  0  0  0  0  0
   -5.2362    1.6576    0.5309 C   0  0  0  0  0  0
   -6.5792    1.3553    0.8491 C   0  0  0  0  0  0
   -4.8352    2.2210   -0.8221 C   0  0  0  0  0  0
   -5.7127    2.4189   -1.6615 O   0  0  0  0  0  0
   -3.4808    2.4949   -1.0684 N   0  3  0  0  0  0
   -2.6194    2.2572   -0.1223 C   0  0  0  0  0  0
   -2.9236    1.7461    1.1317 N   0  0  0  0  0  0
   -1.1411    2.5363   -0.3325 C   0  0  0  0  0  0
   -0.2763    1.2595   -0.2950 C   0  0  0  0  0  0
    1.2133    1.5482   -0.5020 C   0  0  0  0  0  0
    1.7383    2.4956    0.0836 O   0  0  0  0  0  0
    1.8615    0.7098   -1.3325 N   0  0  0  0  0  0
    3.2362    0.7109   -1.6873 C   0  0  0  0  0  0
    4.1458    1.5497   -1.1801 N   0  0  0  0  0  0
    5.4207    1.3156   -1.6998 C   0  0  0  0  0  0
    5.4713    0.2876   -2.6102 C   0  0  0  0  0  0
    3.8978   -0.4310   -2.8464 S   0  0  0  0  0  0
    6.6686   -0.2116   -3.3499 C   0  0  0  0  0  0
    7.1032    0.7515   -4.4381 C   0  0  0  0  0  0
    8.1301    1.6869   -4.1906 C   0  0  0  0  0  0
    8.5263    2.5855   -5.2002 C   0  0  0  0  0  0
    7.8975    2.5529   -6.4601 C   0  0  0  0  0  0
    6.8711    1.6209   -6.7102 C   0  0  0  0  0  0
    6.4749    0.7217   -5.7008 C   0  0  0  0  0  0
    6.2636    1.5885   -7.9201 F   0  0  0  0  0  0
    8.2798    3.4183   -7.4291 F   0  0  0  0  0  0
   -3.1408    2.9008   -2.0326 H   0  0  0  0  0  0
   -7.8519    0.6196    2.3445 H   0  0  0  0  0  0
   -6.1257    0.2416    3.9730 H   0  0  0  0  0  0
   -3.8319    0.7527    3.4455 H   0  0  0  0  0  0
   -7.3008    1.5109    0.1745 H   0  0  0  0  0  0
   -0.8144    3.2238    0.4616 H   0  0  0  0  0  0
   -1.0292    3.0264   -1.3109 H   0  0  0  0  0  0
   -0.3914    0.7673    0.6820 H   0  0  0  0  0  0
   -0.6004    0.5737   -1.0916 H   0  0  0  0  0  0
    1.3131   -0.1022   -1.8325 H   0  0  0  0  0  0
    6.2525    1.8202   -1.4687 H   0  0  0  0  0  0
    7.5061   -0.3393   -2.6483 H   0  0  0  0  0  0
    6.4329   -1.1781   -3.8194 H   0  0  0  0  0  0
    8.6142    1.7199   -3.2254 H   0  0  0  0  0  0
    9.3121    3.3008   -5.0075 H   0  0  0  0  0  0
    5.6851    0.0112   -5.8963 H   0  0  0  0  0  0
   -2.1014    1.5981    1.8473 H   0  0  0  0  0  0
  1  6  1  0  0  0
  1 32  1  0  0  0
  1  2  2  0  0  0
  2 33  1  0  0  0
  2  3  1  0  0  0
  3 34  1  0  0  0
  3  4  2  0  0  0
  4  5  1  0  0  0
  4 11  1  0  0  0
  5  7  1  0  0  0
  5  6  2  0  0  0
  6 35  1  0  0  0
  7  8  2  0  0  0
  7  9  1  0  0  0
  9 10  2  0  0  0
  9 31  1  0  0  0
 10 11  1  0  0  0
 10 12  1  0  0  0
 11 47  1  0  0  0
 12 13  1  0  0  0
 12 36  1  0  0  0
 12 37  1  0  0  0
 13 14  1  0  0  0
 13 38  1  0  0  0
 13 39  1  0  0  0
 14 15  2  0  0  0
 14 16  1  0  0  0
 16 17  1  0  0  0
 16 40  1  0  0  0
 17 21  1  0  0  0
 17 18  2  0  0  0
 18 19  1  0  0  0
 19 20  2  0  0  0
 19 41  1  0  0  0
 20 21  1  0  0  0
 20 22  1  0  0  0
 22 23  1  0  0  0
 22 42  1  0  0  0
 22 43  1  0  0  0
 23 28  1  0  0  0
 23 24  2  0  0  0
 24 25  1  0  0  0
 24 44  1  0  0  0
 25 26  2  0  0  0
 25 45  1  0  0  0
 26 27  1  0  0  0
 26 30  1  0  0  0
 27 28  2  0  0  0
 27 29  1  0  0  0
 28 46  1  0  0  0
M  CHG  1   9   1
M  END
> <s_m_source_file>
SM18.smi

> <i_m_source_file_index>
1

> <i_lp_mmshare_version>
38013

> <i_f3d_flags>
0

> <s_lp_Force_Field>
OPLS_2005

> <r_lp_Energy>
13.8546902704395

> <b_lp_Chiralities_Consistent>
1

> <s_lp_Variant>
SM18-2

> <r_epik_Ionization_Penalty>
  2.6436

> <r_epik_Ionization_Penalty_Charging>
  2.3113

> <r_epik_Ionization_Penalty_Neutral>
  0.3323

> <r_epik_State_Penalty>
  1.3743

> <r_epik_Charging_Adjusted_Penalty>
3.68567338980793

> <i_epik_Tot_Q>
1

> <i_epik_Tot_abs_Q>
1

$$$$
SM18
                    3D
 Structure written by MMmdl.
 48 51  0  0  1  0            999 V2000
   -6.9016    0.8338    2.1186 C   0  0  0  0  0  0
   -5.8898    0.6118    3.0745 C   0  0  0  0  0  0
   -4.5484    0.9108    2.7660 C   0  0  0  0  0  0
   -4.2288    1.4228    1.4940 C   0  0  0  0  0  0
   -5.2362    1.6576    0.5309 C   0  0  0  0  0  0
   -6.5792    1.3553    0.8491 C   0  0  0  0  0  0
   -4.8352    2.2210   -0.8221 C   0  0  0  0  0  0
   -5.7127    2.4189   -1.6615 O   0  0  0  0  0  0
   -3.4808    2.4949   -1.0684 N   0  3  0  0  0  0
   -2.6194    2.2572   -0.1223 C   0  0  0  0  0  0
   -2.9236    1.7461    1.1317 N   0  0  0  0  0  0
   -1.1411    2.5363   -0.3325 C   0  0  0  0  0  0
   -0.2763    1.2595   -0.2950 C   0  0  0  0  0  0
    1.2133    1.5482   -0.5020 C   0  0  0  0  0  0
    1.7383    2.4956    0.0836 O   0  0  0  0  0  0
    1.8615    0.7098   -1.3325 N   0  0  0  0  0  0
    3.2362    0.7109   -1.6873 C   0  0  0  0  0  0
    4.1458    1.5497   -1.1801 N   0  3  0  0  0  0
    5.4207    1.3156   -1.6998 C   0  0  0  0  0  0
    5.4713    0.2876   -2.6102 C   0  0  0  0  0  0
    3.8978   -0.4310   -2.8464 S   0  0  0  0  0  0
    6.6686   -0.2116   -3.3499 C   0  0  0  0  0  0
    7.1032    0.7515   -4.4381 C   0  0  0  0  0  0
    8.1301    1.6869   -4.1906 C   0  0  0  0  0  0
    8.5263    2.5855   -5.2002 C   0  0  0  0  0  0
    7.8975    2.5529   -6.4601 C   0  0  0  0  0  0
    6.8711    1.6209   -6.7102 C   0  0  0  0  0  0
    6.4749    0.7217   -5.7008 C   0  0  0  0  0  0
    6.2636    1.5885   -7.9201 F   0  0  0  0  0  0
    8.2798    3.4183   -7.4291 F   0  0  0  0  0  0
   -3.1408    2.9008   -2.0326 H   0  0  0  0  0  0
   -7.8519    0.6196    2.3445 H   0  0  0  0  0  0
   -6.1257    0.2416    3.9730 H   0  0  0  0  0  0
   -3.8319    0.7527    3.4455 H   0  0  0  0  0  0
   -7.3008    1.5109    0.1745 H   0  0  0  0  0  0
   -0.8144    3.2238    0.4616 H   0  0  0  0  0  0
   -1.0292    3.0264   -1.3109 H   0  0  0  0  0  0
   -0.3914    0.7673    0.6820 H   0  0  0  0  0  0
   -0.6004    0.5737   -1.0916 H   0  0  0  0  0  0
    1.3131   -0.1022   -1.8325 H   0  0  0  0  0  0
    6.2525    1.8202   -1.4687 H   0  0  0  0  0  0
    7.5061   -0.3393   -2.6483 H   0  0  0  0  0  0
    6.4329   -1.1781   -3.8194 H   0  0  0  0  0  0
    8.6142    1.7199   -3.2254 H   0  0  0  0  0  0
    9.3121    3.3008   -5.0075 H   0  0  0  0  0  0
    5.6851    0.0112   -5.8963 H   0  0  0  0  0  0
    3.8438    2.3084   -0.4431 H   0  0  0  0  0  0
   -2.1014    1.5981    1.8473 H   0  0  0  0  0  0
  1  6  1  0  0  0
  1 32  1  0  0  0
  1  2  2  0  0  0
  2 33  1  0  0  0
  2  3  1  0  0  0
  3 34  1  0  0  0
  3  4  2  0  0  0
  4  5  1  0  0  0
  4 11  1  0  0  0
  5  7  1  0  0  0
  5  6  2  0  0  0
  6 35  1  0  0  0
  7  8  2  0  0  0
  7  9  1  0  0  0
  9 10  2  0  0  0
  9 31  1  0  0  0
 10 11  1  0  0  0
 10 12  1  0  0  0
 11 48  1  0  0  0
 12 13  1  0  0  0
 12 36  1  0  0  0
 12 37  1  0  0  0
 13 14  1  0  0  0
 13 38  1  0  0  0
 13 39  1  0  0  0
 14 15  2  0  0  0
 14 16  1  0  0  0
 16 17  1  0  0  0
 16 40  1  0  0  0
 17 21  1  0  0  0
 17 18  2  0  0  0
 18 19  1  0  0  0
 18 47  1  0  0  0
 19 20  2  0  0  0
 19 41  1  0  0  0
 20 21  1  0  0  0
 20 22  1  0  0  0
 22 23  1  0  0  0
 22 42  1  0  0  0
 22 43  1  0  0  0
 23 28  1  0  0  0
 23 24  2  0  0  0
 24 25  1  0  0  0
 24 44  1  0  0  0
 25 26  2  0  0  0
 25 45  1  0  0  0
 26 27  1  0  0  0
 26 30  1  0  0  0
 27 28  2  0  0  0
 27 29  1  0  0  0
 28 46  1  0  0  0
M  CHG  2   9   1  18   1
M  END
> <s_m_source_file>
SM18.smi

> <i_m_source_file_index>
1

> <i_lp_mmshare_version>
38013

> <i_f3d_flags>
0

> <s_lp_Force_Field>
OPLS_2005

> <r_lp_Energy>
13.8546902704395

> <b_lp_Chiralities_Consistent>
1

> <s_lp_Variant>
SM18-2

> <r_epik_Ionization_Penalty>
  2.9728

> <r_epik_Ionization_Penalty_Charging>
  2.8674

> <r_epik_Ionization_Penalty_Neutral>
  0.1054

> <r_epik_State_Penalty>
  1.5729

> <r_epik_Charging_Adjusted_Penalty>
4.44030129911388

> <i_epik_Tot_Q>
2

> <i_epik_Tot_abs_Q>
2

$$$$
SM18
                    3D
 Structure written by MMmdl.
 46 49  0  0  1  0            999 V2000
   -6.8981    0.8088    2.1092 C   0  0  0  0  0  0
   -5.8875    0.5954    3.0683 C   0  0  0  0  0  0
   -4.5472    0.9024    2.7629 C   0  0  0  0  0  0
   -4.2288    1.4228    1.4940 C   0  0  0  0  0  0
   -5.2339    1.6407    0.5245 C   0  0  0  0  0  0
   -6.5757    1.3300    0.8397 C   0  0  0  0  0  0
   -4.8329    2.2046   -0.8283 C   0  0  0  0  0  0
   -5.7094    2.3951   -1.6705 O   0  0  0  0  0  0
   -3.4797    2.4864   -1.0716 N   0  0  0  0  0  0
   -2.6192    2.2562   -0.1226 C   0  0  0  0  0  0
   -2.9235    1.7456    1.1315 N   0  0  0  0  0  0
   -1.1409    2.5348   -0.3330 C   0  0  0  0  0  0
   -0.2765    1.2579   -0.2952 C   0  0  0  0  0  0
    1.2132    1.5460   -0.5024 C   0  0  0  0  0  0
    1.7385    2.4935    0.0828 O   0  0  0  0  0  0
    1.8611    0.7072   -1.3327 N   0  0  0  0  0  0
    3.2358    0.7078   -1.6876 C   0  0  0  0  0  0
    4.1457    1.5465   -1.1807 N   0  0  0  0  0  0
    5.4204    1.3119   -1.7004 C   0  0  0  0  0  0
    5.4707    0.2836   -2.6105 C   0  0  0  0  0  0
    3.8970   -0.4346   -2.8464 S   0  0  0  0  0  0
    6.6678   -0.2161   -3.3501 C   0  0  0  0  0  0
    7.1027    0.7465   -4.4386 C   0  0  0  0  0  0
    8.1298    1.6817   -4.1914 C   0  0  0  0  0  0
    8.5262    2.5799   -5.2014 C   0  0  0  0  0  0
    7.8974    2.5470   -6.4612 C   0  0  0  0  0  0
    6.8706    1.6153   -6.7110 C   0  0  0  0  0  0
    6.4743    0.7165   -5.7013 C   0  0  0  0  0  0
    6.2631    1.5827   -7.9209 F   0  0  0  0  0  0
    8.2798    3.4121   -7.4305 F   0  0  0  0  0  0
   -2.1013    1.5976    1.8471 H   0  0  0  0  0  0
   -7.9244    0.5719    2.3484 H   0  0  0  0  0  0
   -6.1412    0.1958    4.0392 H   0  0  0  0  0  0
   -3.7734    0.7387    3.4985 H   0  0  0  0  0  0
   -7.3639    1.4869    0.1178 H   0  0  0  0  0  0
   -0.9933    3.0097   -1.3142 H   0  0  0  0  0  0
   -0.7784    3.2076    0.4581 H   0  0  0  0  0  0
   -0.3917    0.7660    0.6819 H   0  0  0  0  0  0
   -0.6008    0.5719   -1.0916 H   0  0  0  0  0  0
    1.3125   -0.1048   -1.8324 H   0  0  0  0  0  0
    6.2416    1.9295   -1.3680 H   0  0  0  0  0  0
    7.5053   -0.3439   -2.6486 H   0  0  0  0  0  0
    6.4318   -1.1827   -3.8193 H   0  0  0  0  0  0
    8.6140    1.7148   -3.2263 H   0  0  0  0  0  0
    9.3122    3.2950   -5.0089 H   0  0  0  0  0  0
    5.6842    0.0062   -5.8966 H   0  0  0  0  0  0
  1  6  2  0  0  0
  1 32  1  0  0  0
  1  2  1  0  0  0
  2 33  1  0  0  0
  2  3  2  0  0  0
  3 34  1  0  0  0
  3  4  1  0  0  0
  4  5  2  0  0  0
  4 11  1  0  0  0
  5  7  1  0  0  0
  5  6  1  0  0  0
  6 35  1  0  0  0
  7  8  2  0  0  0
  7  9  1  0  0  0
  9 10  2  0  0  0
 10 11  1  0  0  0
 10 12  1  0  0  0
 11 31  1  0  0  0
 12 13  1  0  0  0
 12 36  1  0  0  0
 12 37  1  0  0  0
 13 14  1  0  0  0
 13 38  1  0  0  0
 13 39  1  0  0  0
 14 15  2  0  0  0
 14 16  1  0  0  0
 16 17  1  0  0  0
 16 40  1  0  0  0
 17 21  1  0  0  0
 17 18  2  0  0  0
 18 19  1  0  0  0
 19 20  2  0  0  0
 19 41  1  0  0  0
 20 21  1  0  0  0
 20 22  1  0  0  0
 22 23  1  0  0  0
 22 42  1  0  0  0
 22 43  1  0  0  0
 23 28  1  0  0  0
 23 24  2  0  0  0
 24 25  1  0  0  0
 24 44  1  0  0  0
 25 26  2  0  0  0
 25 45  1  0  0  0
 26 27  1  0  0  0
 26 30  1  0  0  0
 27 28  2  0  0  0
 27 29  1  0  0  0
 28 46  1  0  0  0
M  END
> <s_m_source_file>
SM18.smi

> <i_m_source_file_index>
1

> <i_lp_mmshare_version>
38013

> <i_f3d_flags>
0

> <s_lp_Force_Field>
OPLS_2005

> <r_lp_Energy>
13.8546902704395

> <b_lp_Chiralities_Consistent>
1

> <s_lp_Variant>
SM18-2

> <r_lp_tautomer_probability>
0.115935005679211

> <r_epik_Ionization_Penalty>
  0.5808

> <r_epik_Ionization_Penalty_Charging>
  0.0000

> <r_epik_Ionization_Penalty_Neutral>
  0.5808

> <r_epik_State_Penalty>
  2.4647

> <r_epik_Charging_Adjusted_Penalty>
2.46468102992489

> <i_epik_Tot_Q>
0

> <i_epik_Tot_abs_Q>
0

$$$$
SM18
                    3D
 Structure written by MMmdl.
 47 50  0  0  1  0            999 V2000
   -6.8981    0.8088    2.1092 C   0  0  0  0  0  0
   -5.8875    0.5954    3.0683 C   0  0  0  0  0  0
   -4.5472    0.9024    2.7629 C   0  0  0  0  0  0
   -4.2288    1.4228    1.4940 C   0  0  0  0  0  0
   -5.2339    1.6407    0.5245 C   0  0  0  0  0  0
   -6.5757    1.3300    0.8397 C   0  0  0  0  0  0
   -4.8329    2.2046   -0.8283 C   0  0  0  0  0  0
   -5.7094    2.3951   -1.6705 O   0  0  0  0  0  0
   -3.4797    2.4864   -1.0716 N   0  0  0  0  0  0
   -2.6192    2.2562   -0.1226 C   0  0  0  0  0  0
   -2.9235    1.7456    1.1315 N   0  0  0  0  0  0
   -1.1409    2.5348   -0.3330 C   0  0  0  0  0  0
   -0.2765    1.2579   -0.2952 C   0  0  0  0  0  0
    1.2132    1.5460   -0.5024 C   0  0  0  0  0  0
    1.7385    2.4935    0.0828 O   0  0  0  0  0  0
    1.8611    0.7072   -1.3327 N   0  0  0  0  0  0
    3.2358    0.7078   -1.6876 C   0  0  0  0  0  0
    4.1457    1.5465   -1.1807 N   0  3  0  0  0  0
    5.4204    1.3119   -1.7004 C   0  0  0  0  0  0
    5.4707    0.2836   -2.6105 C   0  0  0  0  0  0
    3.8970   -0.4346   -2.8464 S   0  0  0  0  0  0
    6.6678   -0.2161   -3.3501 C   0  0  0  0  0  0
    7.1027    0.7465   -4.4386 C   0  0  0  0  0  0
    8.1298    1.6817   -4.1914 C   0  0  0  0  0  0
    8.5262    2.5799   -5.2014 C   0  0  0  0  0  0
    7.8974    2.5470   -6.4612 C   0  0  0  0  0  0
    6.8706    1.6153   -6.7110 C   0  0  0  0  0  0
    6.4743    0.7165   -5.7013 C   0  0  0  0  0  0
    6.2631    1.5827   -7.9209 F   0  0  0  0  0  0
    8.2798    3.4121   -7.4305 F   0  0  0  0  0  0
   -2.1013    1.5976    1.8471 H   0  0  0  0  0  0
   -7.9244    0.5719    2.3484 H   0  0  0  0  0  0
   -6.1412    0.1958    4.0392 H   0  0  0  0  0  0
   -3.7734    0.7387    3.4985 H   0  0  0  0  0  0
   -7.3639    1.4869    0.1178 H   0  0  0  0  0  0
   -0.9933    3.0097   -1.3142 H   0  0  0  0  0  0
   -0.7784    3.2076    0.4581 H   0  0  0  0  0  0
   -0.3917    0.7660    0.6819 H   0  0  0  0  0  0
   -0.6008    0.5719   -1.0916 H   0  0  0  0  0  0
    1.3125   -0.1048   -1.8324 H   0  0  0  0  0  0
    6.2416    1.9295   -1.3680 H   0  0  0  0  0  0
    7.5053   -0.3439   -2.6486 H   0  0  0  0  0  0
    6.4318   -1.1827   -3.8193 H   0  0  0  0  0  0
    8.6140    1.7148   -3.2263 H   0  0  0  0  0  0
    9.3122    3.2950   -5.0089 H   0  0  0  0  0  0
    5.6842    0.0062   -5.8966 H   0  0  0  0  0  0
    3.8440    2.3055   -0.4439 H   0  0  0  0  0  0
  1  6  2  0  0  0
  1 32  1  0  0  0
  1  2  1  0  0  0
  2 33  1  0  0  0
  2  3  2  0  0  0
  3 34  1  0  0  0
  3  4  1  0  0  0
  4  5  2  0  0  0
  4 11  1  0  0  0
  5  7  1  0  0  0
  5  6  1  0  0  0
  6 35  1  0  0  0
  7  8  2  0  0  0
  7  9  1  0  0  0
  9 10  2  0  0  0
 10 11  1  0  0  0
 10 12  1  0  0  0
 11 31  1  0  0  0
 12 13  1  0  0  0
 12 36  1  0  0  0
 12 37  1  0  0  0
 13 14  1  0  0  0
 13 38  1  0  0  0
 13 39  1  0  0  0
 14 15  2  0  0  0
 14 16  1  0  0  0
 16 17  1  0  0  0
 16 40  1  0  0  0
 17 21  1  0  0  0
 17 18  2  0  0  0
 18 19  1  0  0  0
 18 47  1  0  0  0
 19 20  2  0  0  0
 19 41  1  0  0  0
 20 21  1  0  0  0
 20 22  1  0  0  0
 22 23  1  0  0  0
 22 42  1  0  0  0
 22 43  1  0  0  0
 23 28  1  0  0  0
 23 24  2  0  0  0
 24 25  1  0  0  0
 24 44  1  0  0  0
 25 26  2  0  0  0
 25 45  1  0  0  0
 26 27  1  0  0  0
 26 30  1  0  0  0
 27 28  2  0  0  0
 27 29  1  0  0  0
 28 46  1  0  0  0
M  CHG  1  18   1
M  END
> <s_m_source_file>
SM18.smi

> <i_m_source_file_index>
1

> <i_lp_mmshare_version>
38013

> <i_f3d_flags>
0

> <s_lp_Force_Field>
OPLS_2005

> <r_lp_Energy>
13.8546902704395

> <b_lp_Chiralities_Consistent>
1

> <s_lp_Variant>
SM18-2

> <r_lp_tautomer_probability>
0.116051

> <r_epik_Ionization_Penalty>
  0.8447

> <r_epik_Ionization_Penalty_Charging>
  0.5023

> <r_epik_Ionization_Penalty_Neutral>
  0.3424

> <r_epik_State_Penalty>
  2.6824

> <r_epik_Charging_Adjusted_Penalty>
3.18469087982472

> <i_epik_Tot_Q>
1

> <i_epik_Tot_abs_Q>
1

$$$$
SM18
                    3D
 Structure written by MMmdl.
 48 51  0  0  1  0            999 V2000
   -6.9016    0.8338    2.1186 C   0  0  0  0  0  0
   -5.8898    0.6118    3.0745 C   0  0  0  0  0  0
   -4.5484    0.9108    2.7660 C   0  0  0  0  0  0
   -4.2288    1.4228    1.4940 C   0  0  0  0  0  0
   -5.2362    1.6576    0.5309 C   0  0  0  0  0  0
   -6.5792    1.3553    0.8491 C   0  0  0  0  0  0
   -4.8352    2.2210   -0.8221 C   0  0  0  0  0  0
   -5.7127    2.4189   -1.6615 O   0  0  0  0  0  0
   -3.4808    2.4949   -1.0684 N   0  0  0  0  0  0
   -2.6194    2.2572   -0.1223 C   0  0  0  0  0  0
   -2.9236    1.7461    1.1317 N   0  0  0  0  0  0
   -1.1411    2.5363   -0.3325 C   0  0  0  0  0  0
   -0.2763    1.2595   -0.2950 C   0  0  0  0  0  0
    1.2133    1.5482   -0.5020 C   0  0  0  0  0  0
    1.7383    2.4956    0.0836 O   0  0  0  0  0  0
    1.8615    0.7098   -1.3325 N   0  0  0  0  0  0
    3.2362    0.7109   -1.6873 C   0  0  0  0  0  0
    4.1458    1.5497   -1.1801 N   0  2  0  0  0  0
    5.4207    1.3156   -1.6998 C   0  0  0  0  0  0
    5.4713    0.2876   -2.6102 C   0  0  0  0  0  0
    3.8978   -0.4310   -2.8464 S   0  0  0  0  0  0
    6.6686   -0.2116   -3.3499 C   0  0  0  0  0  0
    7.1032    0.7515   -4.4381 C   0  0  0  0  0  0
    8.1301    1.6869   -4.1906 C   0  0  0  0  0  0
    8.5263    2.5855   -5.2002 C   0  0  0  0  0  0
    7.8975    2.5529   -6.4601 C   0  0  0  0  0  0
    6.8711    1.6209   -6.7102 C   0  0  0  0  0  0
    6.4749    0.7217   -5.7008 C   0  0  0  0  0  0
    6.2636    1.5885   -7.9201 F   0  0  0  0  0  0
    8.2798    3.4183   -7.4291 F   0  0  0  0  0  0
   -3.1408    2.9008   -2.0326 H   0  0  0  0  0  0
   -7.8519    0.6196    2.3445 H   0  0  0  0  0  0
   -6.1257    0.2416    3.9730 H   0  0  0  0  0  0
   -3.8319    0.7527    3.4455 H   0  0  0  0  0  0
   -7.3008    1.5109    0.1745 H   0  0  0  0  0  0
   -0.8144    3.2238    0.4616 H   0  0  0  0  0  0
   -1.0292    3.0264   -1.3109 H   0  0  0  0  0  0
   -0.3914    0.7673    0.6820 H   0  0  0  0  0  0
   -0.6004    0.5737   -1.0916 H   0  0  0  0  0  0
    1.3131   -0.1022   -1.8325 H   0  0  0  0  0  0
    6.3362    1.8687   -1.4433 H   0  0  0  0  0  0
    7.5061   -0.3393   -2.6483 H   0  0  0  0  0  0
    6.4329   -1.1781   -3.8194 H   0  0  0  0  0  0
    8.6142    1.7199   -3.2254 H   0  0  0  0  0  0
    9.3121    3.3008   -5.0075 H   0  0  0  0  0  0
    5.6851    0.0112   -5.8963 H   0  0  0  0  0  0
    3.8713    2.2394   -0.5101 H   0  0  0  0  0  0
    4.6446    1.3034   -0.3491 H   0  0  0  0  0  0
  1  6  2  0  0  0
  1 32  1  0  0  0
  1  2  1  0  0  0
  2 33  1  0  0  0
  2  3  2  0  0  0
  3 34  1  0  0  0
  3  4  1  0  0  0
  4  5  2  0  0  0
  4 11  1  0  0  0
  5  7  1  0  0  0
  5  6  1  0  0  0
  6 35  1  0  0  0
  7  8  2  0  0  0
  7  9  1  0  0  0
  9 10  1  0  0  0
  9 31  1  0  0  0
 10 11  2  0  0  0
 10 12  1  0  0  0
 12 13  1  0  0  0
 12 36  1  0  0  0
 12 37  1  0  0  0
 13 14  1  0  0  0
 13 38  1  0  0  0
 13 39  1  0  0  0
 14 15  2  0  0  0
 14 16  1  0  0  0
 16 17  1  0  0  0
 16 40  1  0  0  0
 17 21  1  0  0  0
 17 18  2  0  0  0
 18 19  1  0  0  0
 18 47  1  0  0  0
 18 48  1  0  0  0
 19 20  2  0  0  0
 19 41  1  0  0  0
 20 21  1  0  0  0
 20 22  1  0  0  0
 22 23  1  0  0  0
 22 42  1  0  0  0
 22 43  1  0  0  0
 23 28  1  0  0  0
 23 24  2  0  0  0
 24 25  1  0  0  0
 24 44  1  0  0  0
 25 26  2  0  0  0
 25 45  1  0  0  0
 26 27  1  0  0  0
 26 30  1  0  0  0
 27 28  2  0  0  0
 27 29  1  0  0  0
 28 46  1  0  0  0
M  CHG  1  18   2
M  END
> <s_m_source_file>
SM18.smi

> <i_m_source_file_index>
1

> <i_lp_mmshare_version>
38013

> <i_f3d_flags>
0

> <s_lp_Force_Field>
OPLS_2005

> <r_lp_Energy>
13.8546902704395

> <b_lp_Chiralities_Consistent>
1

> <s_lp_Variant>
SM18-2

> <r_epik_Ionization_Penalty>
 17.7767

> <r_epik_Ionization_Penalty_Charging>
 17.7212

> <r_epik_Ionization_Penalty_Neutral>
  0.0555

> <r_epik_State_Penalty>
  2.8374

> <r_epik_Charging_Adjusted_Penalty>
20.5585929603935

> <i_epik_Tot_Q>
2

> <i_epik_Tot_abs_Q>
2

> <s_epik_Chemistry_Notes>
This compound has an imine and may undergo hydrolysis.

$$$$
SM18
                    3D
 Structure written by MMmdl.
 47 50  0  0  1  0            999 V2000
   -6.9016    0.8338    2.1186 C   0  0  0  0  0  0
   -5.8898    0.6118    3.0745 C   0  0  0  0  0  0
   -4.5484    0.9108    2.7660 C   0  0  0  0  0  0
   -4.2288    1.4228    1.4940 C   0  0  0  0  0  0
   -5.2362    1.6576    0.5309 C   0  0  0  0  0  0
   -6.5792    1.3553    0.8491 C   0  0  0  0  0  0
   -4.8352    2.2210   -0.8221 C   0  0  0  0  0  0
   -5.7127    2.4189   -1.6615 O   0  0  0  0  0  0
   -3.4808    2.4949   -1.0684 N   0  0  0  0  0  0
   -2.6194    2.2572   -0.1223 C   0  0  0  0  0  0
   -2.9236    1.7461    1.1317 N   0  0  0  0  0  0
   -1.1411    2.5363   -0.3325 C   0  0  0  0  0  0
   -0.2763    1.2595   -0.2950 C   0  0  0  0  0  0
    1.2133    1.5482   -0.5020 C   0  0  0  0  0  0
    1.7383    2.4956    0.0836 O   0  3  0  0  0  0
    1.8615    0.7098   -1.3325 N   0  0  0  0  0  0
    3.2362    0.7109   -1.6873 C   0  0  0  0  0  0
    4.1458    1.5497   -1.1801 N   0  0  0  0  0  0
    5.4207    1.3156   -1.6998 C   0  0  0  0  0  0
    5.4713    0.2876   -2.6102 C   0  0  0  0  0  0
    3.8978   -0.4310   -2.8464 S   0  0  0  0  0  0
    6.6686   -0.2116   -3.3499 C   0  0  0  0  0  0
    7.1032    0.7515   -4.4381 C   0  0  0  0  0  0
    8.1301    1.6869   -4.1906 C   0  0  0  0  0  0
    8.5263    2.5855   -5.2002 C   0  0  0  0  0  0
    7.8975    2.5529   -6.4601 C   0  0  0  0  0  0
    6.8711    1.6209   -6.7102 C   0  0  0  0  0  0
    6.4749    0.7217   -5.7008 C   0  0  0  0  0  0
    6.2636    1.5885   -7.9201 F   0  0  0  0  0  0
    8.2798    3.4183   -7.4291 F   0  0  0  0  0  0
   -3.1408    2.9008   -2.0326 H   0  0  0  0  0  0
   -7.8519    0.6196    2.3445 H   0  0  0  0  0  0
   -6.1257    0.2416    3.9730 H   0  0  0  0  0  0
   -3.8319    0.7527    3.4455 H   0  0  0  0  0  0
   -7.3008    1.5109    0.1745 H   0  0  0  0  0  0
   -0.8144    3.2238    0.4616 H   0  0  0  0  0  0
   -1.0292    3.0264   -1.3109 H   0  0  0  0  0  0
   -0.3914    0.7673    0.6820 H   0  0  0  0  0  0
   -0.6004    0.5737   -1.0916 H   0  0  0  0  0  0
    1.3131   -0.1022   -1.8325 H   0  0  0  0  0  0
    6.2525    1.8202   -1.4687 H   0  0  0  0  0  0
    7.5061   -0.3393   -2.6483 H   0  0  0  0  0  0
    6.4329   -1.1781   -3.8194 H   0  0  0  0  0  0
    8.6142    1.7199   -3.2254 H   0  0  0  0  0  0
    9.3121    3.3008   -5.0075 H   0  0  0  0  0  0
    5.6851    0.0112   -5.8963 H   0  0  0  0  0  0
    2.8094    2.7034   -0.0564 H   0  0  0  0  0  0
  1  6  2  0  0  0
  1 32  1  0  0  0
  1  2  1  0  0  0
  2 33  1  0  0  0
  2  3  2  0  0  0
  3 34  1  0  0  0
  3  4  1  0  0  0
  4  5  2  0  0  0
  4 11  1  0  0  0
  5  7  1  0  0  0
  5  6  1  0  0  0
  6 35  1  0  0  0
  7  8  2  0  0  0
  7  9  1  0  0  0
  9 10  1  0  0  0
  9 31  1  0  0  0
 10 11  2  0  0  0
 10 12  1  0  0  0
 12 13  1  0  0  0
 12 36  1  0  0  0
 12 37  1  0  0  0
 13 14  1  0  0  0
 13 38  1  0  0  0
 13 39  1  0  0  0
 14 15  2  0  0  0
 14 16  1  0  0  0
 15 47  1  0  0  0
 16 17  1  0  0  0
 16 40  1  0  0  0
 17 21  1  0  0  0
 17 18  2  0  0  0
 18 19  1  0  0  0
 19 20  2  0  0  0
 19 41  1  0  0  0
 20 21  1  0  0  0
 20 22  1  0  0  0
 22 23  1  0  0  0
 22 42  1  0  0  0
 22 43  1  0  0  0
 23 28  1  0  0  0
 23 24  2  0  0  0
 24 25  1  0  0  0
 24 44  1  0  0  0
 25 26  2  0  0  0
 25 45  1  0  0  0
 26 27  1  0  0  0
 26 30  1  0  0  0
 27 28  2  0  0  0
 27 29  1  0  0  0
 28 46  1  0  0  0
M  CHG  1  15   1
M  END
> <s_m_source_file>
SM18.smi

> <i_m_source_file_index>
1

> <i_lp_mmshare_version>
38013

> <i_f3d_flags>
0

> <s_lp_Force_Field>
OPLS_2005

> <r_lp_Energy>
13.8546902704395

> <b_lp_Chiralities_Consistent>
1

> <s_lp_Variant>
SM18-2

> <r_epik_Ionization_Penalty>
  6.2682

> <r_epik_Ionization_Penalty_Charging>
  3.8445

> <r_epik_Ionization_Penalty_Neutral>
  2.4237

> <r_epik_State_Penalty>
  4.6632

> <r_epik_Charging_Adjusted_Penalty>
8.50770057495796

> <i_epik_Tot_Q>
1

> <i_epik_Tot_abs_Q>
1

$$$$
SM18
                    3D
 Structure written by MMmdl.
 46 49  0  0  1  0            999 V2000
   -6.8896    0.8038    2.1531 C   0  0  0  0  0  0
   -5.8746    0.5844    3.1062 C   0  0  0  0  0  0
   -4.5348    0.8868    2.7940 C   0  0  0  0  0  0
   -4.2201    1.3993    1.5210 C   0  0  0  0  0  0
   -5.2308    1.6315    0.5606 C   0  0  0  0  0  0
   -6.5721    1.3259    0.8827 C   0  0  0  0  0  0
   -4.8349    2.1957   -0.7936 C   0  0  0  0  0  0
   -5.7153    2.3913   -1.6305 O   0  0  0  0  0  0
   -3.4819    2.4729   -1.0436 N   0  0  0  0  0  0
   -2.6172    2.2375   -0.0999 C   0  0  0  0  0  0
   -2.9167    1.7258    1.1549 N   0  0  0  0  0  0
   -1.1403    2.5202   -0.3143 C   0  0  0  0  0  0
   -0.2722    1.2456   -0.2791 C   0  0  0  0  0  0
    1.2161    1.5379   -0.4903 C   0  0  0  0  0  0
    1.7404    2.4867    0.0937 O   0  0  0  0  0  0
    1.8641    0.7010   -1.3225 N   0  0  0  0  0  0
    3.2378    0.7055   -1.6811 C   0  0  0  0  0  0
    4.1443    1.5547   -1.1859 N   0  0  0  0  0  0
    5.4196    1.3194   -1.7040 C   0  0  0  0  0  0
    5.4721    0.2852   -2.6073 C   0  0  0  0  0  0
    3.8990   -0.4350   -2.8419 S   0  0  0  0  0  0
    6.6703   -0.2169   -3.3435 C   0  0  0  0  0  0
    7.1032    0.7395   -4.4383 C   0  0  0  0  0  0
    8.1284    1.6784   -4.1972 C   0  0  0  0  0  0
    8.5230    2.5708   -5.2130 C   0  0  0  0  0  0
    7.8944    2.5283   -6.4727 C   0  0  0  0  0  0
    6.8696    1.5927   -6.7163 C   0  0  0  0  0  0
    6.4750    0.6999   -5.7008 C   0  0  0  0  0  0
    6.2622    1.5509   -7.9260 F   0  0  0  0  0  0
    8.2751    3.3877   -7.4476 F   0  0  0  0  0  0
   -3.1456    2.8796   -2.0088 H   0  0  0  0  0  0
   -7.8388    0.5873    2.3817 H   0  0  0  0  0  0
   -6.1070    0.2138    4.0054 H   0  0  0  0  0  0
   -3.8160    0.7305    3.4714 H   0  0  0  0  0  0
   -7.2959    1.4796    0.2101 H   0  0  0  0  0  0
   -0.8131    3.2087    0.4788 H   0  0  0  0  0  0
   -1.0323    3.0105   -1.2930 H   0  0  0  0  0  0
   -0.3834    0.7532    0.6983 H   0  0  0  0  0  0
   -0.5968    0.5588   -1.0746 H   0  0  0  0  0  0
    3.9870    2.3648   -0.4586 H   0  0  0  0  0  0
    6.2510    1.8253   -1.4742 H   0  0  0  0  0  0
    6.4187   -1.1917   -3.7866 H   0  0  0  0  0  0
    7.4904   -0.3431   -2.6214 H   0  0  0  0  0  0
    8.6124    1.7189   -3.2323 H   0  0  0  0  0  0
    9.3075    3.2888   -5.0252 H   0  0  0  0  0  0
    5.6865   -0.0134   -5.8914 H   0  0  0  0  0  0
  1  6  2  0  0  0
  1 32  1  0  0  0
  1  2  1  0  0  0
  2 33  1  0  0  0
  2  3  2  0  0  0
  3 34  1  0  0  0
  3  4  1  0  0  0
  4  5  2  0  0  0
  4 11  1  0  0  0
  5  7  1  0  0  0
  5  6  1  0  0  0
  6 35  1  0  0  0
  7  8  2  0  0  0
  7  9  1  0  0  0
  9 10  1  0  0  0
  9 31  1  0  0  0
 10 11  2  0  0  0
 10 12  1  0  0  0
 12 13  1  0  0  0
 12 36  1  0  0  0
 12 37  1  0  0  0
 13 38  1  0  0  0
 13 39  1  0  0  0
 13 14  1  0  0  0
 14 16  1  0  0  0
 14 15  2  0  0  0
 16 17  2  0  0  0
 17 21  1  0  0  0
 17 18  1  0  0  0
 18 40  1  0  0  0
 18 19  1  0  0  0
 19 41  1  0  0  0
 19 20  2  0  0  0
 20 22  1  0  0  0
 20 21  1  0  0  0
 22 23  1  0  0  0
 22 42  1  0  0  0
 22 43  1  0  0  0
 23 28  1  0  0  0
 23 24  2  0  0  0
 24 25  1  0  0  0
 24 44  1  0  0  0
 25 26  2  0  0  0
 25 45  1  0  0  0
 26 27  1  0  0  0
 26 30  1  0  0  0
 27 28  2  0  0  0
 27 29  1  0  0  0
 28 46  1  0  0  0
M  END
> <s_m_source_file>
SM18.smi

> <i_m_source_file_index>
1

> <i_lp_mmshare_version>
38013

> <i_f3d_flags>
0

> <s_lp_Force_Field>
OPLS_2005

> <r_lp_Energy>
13.8546902704395

> <b_lp_Chiralities_Consistent>
1

> <s_lp_Variant>
SM18-2

> <r_lp_tautomer_probability>
0.000441748120917748

> <r_epik_Ionization_Penalty>
  2.9723

> <r_epik_Ionization_Penalty_Charging>
  1.0888

> <r_epik_Ionization_Penalty_Neutral>
  1.8836

> <r_epik_State_Penalty>
  5.7928

> <r_epik_Charging_Adjusted_Penalty>
6.88155913256163

> <i_epik_Tot_Q>
0

> <i_epik_Tot_abs_Q>
0

$$$$
SM18
                    3D
 Structure written by MMmdl.
 46 49  0  0  1  0            999 V2000
   -7.4706    0.5391   -0.0754 C   0  0  0  0  0  0
   -7.0524    0.7631   -1.4027 C   0  0  0  0  0  0
   -5.7292    0.4695   -1.7857 C   0  0  0  0  0  0
   -4.8292   -0.0390   -0.8299 C   0  0  0  0  0  0
   -5.2399   -0.2759    0.5016 C   0  0  0  0  0  0
   -6.5694    0.0210    0.8768 C   0  0  0  0  0  0
   -4.2291   -0.8355    1.4885 C   0  0  0  0  0  0
   -4.5868   -1.0352    2.6487 O   0  0  0  0  0  0
   -2.9250   -1.1041    1.0448 N   0  0  0  0  0  0
   -2.6334   -0.8648   -0.2008 C   0  0  0  0  0  0
   -3.5112   -0.3570   -1.1483 N   0  0  0  0  0  0
   -1.2385   -1.1382   -0.7362 C   0  0  0  0  0  0
   -0.5063    0.1416   -1.1893 C   0  0  0  0  0  0
    0.8972   -0.1412   -1.7331 C   0  0  0  0  0  0
    1.0748   -1.0877   -2.5003 O   0  0  0  0  0  0
    1.8641    0.7010   -1.3225 N   0  0  0  0  0  0
    3.2378    0.7055   -1.6811 C   0  0  0  0  0  0
    4.1443    1.5547   -1.1859 N   0  0  0  0  0  0
    5.4196    1.3194   -1.7040 C   0  0  0  0  0  0
    5.4721    0.2852   -2.6073 C   0  0  0  0  0  0
    3.8990   -0.4350   -2.8419 S   0  0  0  0  0  0
    6.6703   -0.2169   -3.3435 C   0  0  0  0  0  0
    7.1032    0.7395   -4.4383 C   0  0  0  0  0  0
    8.1284    1.6784   -4.1972 C   0  0  0  0  0  0
    8.5230    2.5708   -5.2130 C   0  0  0  0  0  0
    7.8944    2.5283   -6.4727 C   0  0  0  0  0  0
    6.8696    1.5927   -6.7163 C   0  0  0  0  0  0
    6.4750    0.6999   -5.7008 C   0  0  0  0  0  0
    6.2622    1.5509   -7.9260 F   0  0  0  0  0  0
    8.2751    3.3877   -7.4476 F   0  0  0  0  0  0
   -2.1573   -1.5071    1.7218 H   0  0  0  0  0  0
   -8.4117    0.7494    0.1895 H   0  0  0  0  0  0
   -7.6970    1.1309   -2.0729 H   0  0  0  0  0  0
   -5.4343    0.6291   -2.7278 H   0  0  0  0  0  0
   -6.8711   -0.1361    1.8172 H   0  0  0  0  0  0
   -1.3365   -1.8259   -1.5891 H   0  0  0  0  0  0
   -0.6628   -1.6262    0.0640 H   0  0  0  0  0  0
   -1.0840    0.6318   -1.9867 H   0  0  0  0  0  0
   -0.4047    0.8277   -0.3355 H   0  0  0  0  0  0
    3.9870    2.3648   -0.4586 H   0  0  0  0  0  0
    6.2510    1.8253   -1.4742 H   0  0  0  0  0  0
    6.4187   -1.1917   -3.7866 H   0  0  0  0  0  0
    7.4904   -0.3431   -2.6214 H   0  0  0  0  0  0
    8.6124    1.7189   -3.2323 H   0  0  0  0  0  0
    9.3075    3.2888   -5.0252 H   0  0  0  0  0  0
    5.6865   -0.0134   -5.8914 H   0  0  0  0  0  0
  1  6  2  0  0  0
  1 32  1  0  0  0
  1  2  1  0  0  0
  2 33  1  0  0  0
  2  3  2  0  0  0
  3 34  1  0  0  0
  3  4  1  0  0  0
  4  5  2  0  0  0
  4 11  1  0  0  0
  5  7  1  0  0  0
  5  6  1  0  0  0
  6 35  1  0  0  0
  7  8  2  0  0  0
  7  9  1  0  0  0
  9 10  1  0  0  0
  9 31  1  0  0  0
 10 11  2  0  0  0
 10 12  1  0  0  0
 12 13  1  0  0  0
 12 36  1  0  0  0
 12 37  1  0  0  0
 13 38  1  0  0  0
 13 39  1  0  0  0
 13 14  1  0  0  0
 14 16  1  0  0  0
 14 15  2  0  0  0
 16 17  2  0  0  0
 17 21  1  0  0  0
 17 18  1  0  0  0
 18 40  1  0  0  0
 18 19  1  0  0  0
 19 41  1  0  0  0
 19 20  2  0  0  0
 20 22  1  0  0  0
 20 21  1  0  0  0
 22 23  1  0  0  0
 22 42  1  0  0  0
 22 43  1  0  0  0
 23 28  1  0  0  0
 23 24  2  0  0  0
 24 25  1  0  0  0
 24 44  1  0  0  0
 25 26  2  0  0  0
 25 45  1  0  0  0
 26 27  1  0  0  0
 26 30  1  0  0  0
 27 28  2  0  0  0
 27 29  1  0  0  0
 28 46  1  0  0  0
M  END
> <s_m_source_file>
SM18.smi

> <i_m_source_file_index>
1

> <i_lp_mmshare_version>
38013

> <i_f3d_flags>
0

> <s_lp_Force_Field>
OPLS_2005

> <r_lp_Energy>
13.8546902704395

> <b_lp_Chiralities_Consistent>
1

> <s_lp_Variant>
SM18-2

> <r_lp_tautomer_probability>
0.000441748120917748

> <r_epik_Ionization_Penalty>
  2.9723

> <r_epik_Ionization_Penalty_Charging>
  1.0888

> <r_epik_Ionization_Penalty_Neutral>
  1.8836

> <r_epik_State_Penalty>
  5.7928

> <r_epik_Charging_Adjusted_Penalty>
6.88155913256163

> <i_epik_Tot_Q>
0

> <i_epik_Tot_abs_Q>
0

$$$$
